24
Properties=species:S:1:pos:R:3 pbc="F F F"
Ca      26.35260458      22.60568628      45.12978553
C       27.13109519      26.35685630      44.41598728
O       27.89251984      26.18716315      43.39613838
O       26.92089874      27.53914280      44.87059896
O       26.57175385      25.34525656      44.97496737
C       26.43426763      23.61899283      48.14028848
O       27.47161810      24.36386081      48.00714126
O       26.21850663      23.01130793      49.25061118
O       25.60636302      23.49139859      47.16717729
C       28.55819472      21.80981951      48.04306462
O       29.66701160      22.44861941      47.93753339
O       27.78860360      21.68668125      47.02265208
O       28.21305718      21.30501619      49.17210402
C       24.76025750      20.10656305      45.23218424
O       25.21311512      20.68246631      46.28665756
O       24.89273207      20.66981705      44.08594940
O       24.18617018      18.96159390      45.32234208
C       28.81196455      20.60221579      44.76475526
O       28.59617668      19.42633747      45.23315710
O       29.95698270      21.15911733      44.93043079
O       27.88323795      21.22056066      44.12932531
H       24.27620767      23.79393111      43.95739544
H       25.52326163      24.49662615      43.46447471
O       25.18061224      23.63157258      43.68921169
