24
Properties=species:S:1:pos:R:3 pbc="F F F"
Ca      31.05135401      44.09380343      41.34453466
C       31.14162379      47.20553276      39.45496130
O       30.79199050      46.21672418      40.19568277
O       31.18087733      47.06933103      38.17880983
O       31.45837674      48.32857030      39.99078616
C       34.32251677      43.76171221      40.77456448
O       34.84978871      44.25898626      39.71467709
O       33.26482844      43.03901360      40.68704305
O       34.84620009      43.99678897      41.92310810
C       31.71722305      43.13081498      44.08613569
O       32.86784561      43.60063601      44.40861375
O       30.71551515      43.28900945      44.87367108
O       31.57112724      42.49201410      42.98194111
C       32.19500806      46.61885895      43.55593471
O       33.22108243      46.67150537      44.32603679
O       31.82050775      47.66528777      42.91297797
O       31.53848294      45.52201306      43.43526471
C       29.80764268      42.23955590      39.65786920
O       29.36710590      43.44499104      39.69670838
O       30.89531991      41.93358598      40.26778300
O       29.16721147      41.34292466      38.99866134
H       28.62260788      45.45501257      42.43555845
H       28.70915729      43.96616513      42.69582239
O       29.24851736      44.75237217      42.61095527
