28
Properties=species:S:1:pos:R:3 pbc="F F F"
Ca       7.10116300      43.61338990      22.72822753
C        5.18221880      41.65625161      21.15428550
O        6.22306684      40.91508111      21.28061173
O        5.18822955      42.85518326      21.61383231
O        4.13961078      41.20258255      20.55778777
C        9.18169926      42.19189240      20.15626524
O        8.45504658      42.78909261      21.03032763
O        8.75436355      41.12236547      19.58867952
O       10.33038454      42.67108736      19.84074694
C        9.63217880      42.22975333      24.60538339
O       10.07760752      41.13620760      25.10976963
O       10.04157633      43.35927459      25.05840649
O        8.77657027      42.19378130      23.64867324
C        5.46926280      46.76623545      21.80666583
O        4.46384234      46.81778624      22.60361588
O        6.22387853      45.72749406      21.79154847
O        5.71272019      47.74816603      21.01597124
C        5.46959854      42.93564271      25.97891355
O        6.43290158      42.70040970      25.16320775
O        4.25274800      42.82704385      25.58376230
O        5.72311783      43.27237181      27.19176342
C        7.81057776      46.02791295      24.64746154
O        8.40132488      45.34520795      23.73444768
O        7.27130713      47.15651869      24.35746271
O        7.77002613      45.58794173      25.85305055
H        4.84407558      44.74313180      22.82714189
H        4.60367403      43.84878420      24.02474142
O        5.04041477      44.65840171      23.76014974
