24
Properties=species:S:1:pos:R:3 pbc="F F F"
Ca       7.45261474      35.91389234      39.36877481
C        6.16576764      33.37983175      40.30504447
O        5.39545362      32.49302849      40.82355458
O        7.23715960      33.02181108      39.69463733
O        5.86894135      34.62511871      40.40409443
C        8.87654773      35.35613805      36.91763378
O        9.90362068      35.35537376      36.14704863
O        8.82661172      34.55721873      37.92158924
O        7.89341612      36.14597835      36.67620028
C        9.49227372      38.17582393      39.78501242
O        9.61797921      37.54126347      40.89415050
O        9.18470396      37.53985026      38.71282076
O        9.66345751      39.44788499      39.75018639
C        8.26684810      34.51355041      42.53742480
O        9.44919339      34.08333573      42.79360835
O        8.10102166      35.70235532      42.08146467
O        7.25103046      33.75191720      42.72895578
C        5.18400560      35.43857710      37.49514633
O        5.40393817      34.22786148      37.86182865
O        5.21829269      36.38743764      38.35952260
O        4.94087933      35.70182915      36.26216369
H        5.24484050      37.11996446      40.30753248
H        5.93116660      38.00036959      41.33014603
O        6.04843734      37.19788199      40.82172409
