24
Properties=species:S:1:pos:R:3 pbc="F F F"
Ca      18.74977929      48.45463737      34.43292177
C       16.37607807      50.29947856      33.50848328
O       16.26283672      51.57140808      33.37421293
O       16.00204106      49.51806205      32.56077997
O       16.85172369      49.80849170      34.59538261
C       19.00082356      48.20441490      37.58780176
O       19.59187077      48.73954145      38.59426029
O       18.94107993      46.92604980      37.48354551
O       18.46951997      48.94765346      36.68559949
C       17.42366096      46.07224040      33.90543540
O       16.95084354      45.06067636      33.27154419
O       16.68956326      47.10721305      34.10167442
O       18.63035375      46.04855871      34.34370273
C       20.13291323      51.54149473      35.44039990
O       21.27649230      52.08320533      35.22260873
O       19.44443236      51.88633075      36.46789129
O       19.67315615      50.66258164      34.62505234
C       18.41166210      48.23037718      31.34332023
O       17.73519992      48.71586162      30.36589517
O       19.11863282      49.00629958      32.08277451
O       18.37132356      46.97072980      31.58891418
H       21.28291230      48.32942010      33.67140735
H       21.40776497      48.22108135      35.17625608
O       20.93818218      47.85397914      34.42728314
