24
Properties=species:S:1:pos:R:3 pbc="F F F"
Ca      15.60531920      26.62776892      38.45265448
C       13.21058174      27.56098930      36.70703252
O       12.76242267      28.16935101      37.74515875
O       13.87187799      26.46829780      36.83882380
O       13.00821762      28.05189273      35.53796491
C       13.08427137      27.55853092      40.83214542
O       14.17098214      27.49574568      40.15113562
O       11.95899370      27.29903563      40.27083522
O       13.12157029      27.89310031      42.07122930
C       18.81076765      27.66568158      38.76788091
O       19.83433589      27.62733945      37.99361096
O       18.57360161      28.71623763      39.46698051
O       18.02436545      26.65346767      38.84305124
C       15.97182838      24.34556359      41.06646516
O       16.34163706      24.68102726      42.24941148
O       15.58510947      25.24481096      40.23552685
O       16.00035376      23.11222801      40.71047907
C       15.51661039      29.10748109      37.29943691
O       14.64868051      29.74161180      36.59713605
O       15.65446083      29.37796227      38.54702930
O       16.23997177      28.19618038      36.75636295
H       17.41311799      24.99916383      36.73046096
H       16.85302006      26.27152307      36.13105505
O       16.61581494      25.52674443      36.68356723
