24
Properties=species:S:1:pos:R:3 pbc="F F F"
Ca       4.60161374       8.00020775      39.31684263
C        6.19739441       9.34299705      36.72060179
O        5.65688785      10.38110879      36.19255512
O        7.47576737       9.25739074      36.80480821
O        5.45994141       8.38507271      37.15326820
C        6.84198733       7.18758720      40.87311153
O        6.82733809       8.29522713      41.52239843
O        6.95257145       7.19470040      39.59390289
O        6.73739304       6.07319153      41.50226700
C        5.25263741       4.48587600      38.98161081
O        5.70065538       4.23775768      37.80415781
O        5.38397701       3.61431772      39.91531950
O        4.68575846       5.61112497      39.22887207
C        4.62232105      10.72535792      38.81798842
O        4.71676478      11.93361251      38.39389601
O        5.47275846      10.27501455      39.66804733
O        3.68245157       9.96484031      38.38565556
C        2.43196588       6.86593046      42.02601938
O        2.37780158       5.80326581      42.74467363
O        1.35677676       7.51368579      41.75576825
O        3.56137596       7.28109031      41.57799087
H        2.01917038       7.14742510      39.53757733
H        1.83640510       7.33166989      38.04608618
O        2.45052008       7.50224532      38.76022815
