20
Properties=species:S:1:pos:R:3 pbc="F F F"
Ca      51.41276774      23.37324406       9.48737958
C       51.66179045      25.81138018      10.88286426
O       50.49948686      25.55206135      10.40202409
O       51.79550812      26.71250149      11.78814150
O       52.68330135      25.13916041      10.49051444
C       50.79527937      20.61110300      11.46855029
O       49.51655607      20.52238587      11.54372931
O       51.33744466      21.65907706      10.96212846
O       51.53173114      19.65004535      11.89594118
C       52.54172335      21.22586068       8.25325926
O       53.43047572      21.98209079       8.78888251
O       51.74733831      21.70006267       7.36289865
O       52.45530523      19.99236933       8.59921895
C       48.52578744      22.52284427       7.90224262
O       49.38520396      23.33965213       8.39507347
O       48.84699461      21.29567319       7.70341575
O       47.34131565      22.93026042       7.61994129
H       51.35336281      23.81221278       6.96461943
H       52.05112875      25.12061906       7.26972745
O       51.33947542      24.55458625       7.56870606
