24
Properties=species:S:1:pos:R:3 pbc="F F F"
Ca       7.33805033      36.20852991       1.94428735
C        8.40895583      34.85226477       5.03507432
O        8.51078800      33.58413800       5.20868487
O        7.61758415      35.31571267       4.13640706
O        9.09215288      35.65719388       5.76581838
C        5.82786268      38.32508145      -0.82272978
O        6.00609260      39.59184094      -0.71223593
O        5.37641106      37.83354251      -1.91965058
O        6.09979734      37.55000182       0.16416319
C        6.76808634      39.01415734       3.15005608
O        6.48421691      39.64536182       2.06855012
O        6.16180335      39.30825280       4.24302672
O        7.66456052      38.09497385       3.14047693
C        9.53273542      37.21416024      -0.69936785
O       10.57831191      36.67240065      -1.21115070
O        8.78918245      36.54231715       0.10338437
O        9.22356725      38.42345646      -1.00048753
C        6.96697787      33.64757363       1.33212413
O        8.19303070      34.01624148       1.23447634
O        6.02450415      34.46702880       1.03397556
O        6.68367714      32.45553998       1.71611971
H        5.03273978      36.18085638       3.40005309
H        4.55370482      35.84111259       2.00470552
O        5.09639923      36.46415639       2.48795677
