24
Properties=species:S:1:pos:R:3 pbc="F F F"
Ca      28.79744996       2.00712394      36.36832192
C       25.66970103       1.78849834      35.28828176
O       26.71759068       2.50561899      35.09746350
O       25.55469934       0.65132471      34.70312486
O       24.72936152       2.21603208      36.05100193
C       31.14437091       1.68216839      38.35874850
O       30.69111998       2.73580398      37.78162664
O       32.14882424       1.05797211      37.85864199
O       30.59643166       1.25569423      39.43881165
C       30.63171086       2.16436051      34.30033302
O       31.05420365       1.68924196      33.18479807
O       30.98179606       1.61396082      35.40629709
O       29.85913288       3.18987875      34.30990389
C       26.31003884       4.04451986      37.75676851
O       26.92893908       2.93225739      37.92558495
O       26.86343641       4.99244061      37.09053795
O       25.14262875       4.21304908      38.26412954
C       28.74027455      -0.62227816      37.49301752
O       29.95760860      -0.65923477      37.08634020
O       28.25042474       0.47132355      37.95425172
O       28.01665324      -1.68208555      37.45017853
H       27.90968901       0.75153300      34.15212155
H       28.86063485      -0.33573989      34.60537076
O       28.21391848       0.28922105      34.93311071
