24
Properties=species:S:1:pos:R:3 pbc="F F F"
Ca      44.61280736      10.46983715       5.95798706
C       46.88448828       9.09343851       6.97827668
O       45.97128772       8.20822344       6.80188204
O       47.68152564       9.00261362       7.98084253
O       47.00845379      10.06272006       6.14534101
C       44.26251135       9.37771654       9.02055692
O       45.42005129       9.60150238       9.52915637
O       43.73884961      10.23070205       8.21628939
O       43.62691337       8.30281891       9.31932541
C       41.43525871       9.34976478       5.87413278
O       40.89138162       8.92065335       6.95520520
O       42.69889307       9.21204125       5.69270264
O       40.71355952       9.90545461       4.96913795
C       44.32093533      13.48443639       6.08650375
O       43.42728807      12.93652753       6.82802130
O       44.45531697      14.76137057       6.08030751
O       45.08172964      12.75525998       5.35291556
C       46.29164159       9.77251317       3.71898576
O       47.00546298      10.80324413       3.44202245
O       45.01042947       9.85394948       3.69618773
O       46.85900651       8.65725779       4.00701089
H       46.82640677      11.82356377       7.54819799
H       46.17106997      10.87034407       8.52482537
O       45.98869144      11.62684642       7.96744384
