24
Properties=species:S:1:pos:R:3 pbc="F F F"
Ca      33.93321220      46.30661187      11.24737750
C       33.76842411      49.72607039      10.77296053
O       33.29625224      50.65041711      10.01712151
O       34.34773264      50.03298153      11.87698182
O       33.65063427      48.49417611      10.43058983
C       33.30889557      45.69375526      14.39816484
O       32.46444953      45.17319938      15.21338780
O       33.84176719      46.83103098      14.66519973
O       33.62940588      45.07152909      13.32170605
C       36.39360483      46.73452915      13.19944968
O       36.15116742      47.86238761      13.76320083
O       36.11054636      46.56293252      11.95884965
O       36.93036831      45.78232051      13.87312589
C       30.64013262      45.63119705      10.65658657
O       31.75911802      45.23313899      11.14451797
O       30.41646624      46.88633559      10.50408643
O       29.74054722      44.77464043      10.33145170
C       33.86037638      44.07630216       9.44416194
O       34.14795029      43.81241264      10.66740363
O       33.86166930      45.29247270       9.03235590
O       33.55919480      43.12515727       8.63591091
H       32.20419193      48.26642090      11.80176666
H       31.76789701      47.75304405      13.15748285
O       32.45021082      47.65251202      12.49374731
