24
Properties=species:S:1:pos:R:3 pbc="F F F"
Ca      29.42614895       1.17352677      14.03993979
C       28.78184169       2.97800292      16.30819289
O       28.02964127       3.89194753      15.81064516
O       28.47908749       1.74037000      16.14926311
O       29.83357104       3.30181761      16.96975427
C       30.65430594       3.57504460      12.49513737
O       31.18508132       2.44472767      12.79400218
O       30.10910728       4.29055304      13.41136068
O       30.65755374       3.98401920      11.27801451
C       29.59169700       0.76759152      10.74372648
O       28.83550318       1.15575748       9.78135680
O       29.07332754       0.40181554      11.86004129
O       30.86545005       0.73320442      10.58552280
C       32.39631947       1.52512367      16.10212892
O       33.31632442       2.21566935      15.53169850
O       32.62762021       0.95361336      17.22841878
O       31.24455882       1.40726720      15.54696167
C       26.70000968       0.17944252      14.51875471
O       26.83322919       1.33648019      13.97822507
O       27.70038695      -0.62378462      14.57097899
O       25.56500769      -0.17644274      15.00225455
H       30.29603815      -1.75720541      14.85283454
H       30.93291802      -0.55756663      15.52152666
O       30.13972491      -0.83682658      15.06426194
