24
Properties=species:S:1:pos:R:3 pbc="F F F"
Ca      33.08885688      22.82042117      38.68232903
C       34.44487954      25.33269418      38.79505785
O       34.94893488      26.50376866      38.94727017
O       34.46081241      24.77207898      37.64001993
O       33.93596590      24.71717925      39.80044539
C       30.12873072      21.89505523      37.18420906
O       31.08814490      21.43149919      37.90065615
O       29.82545507      23.14119063      37.24606876
O       29.48081369      21.11498203      36.39658892
C       30.44611235      23.83823874      40.67463583
O       31.23077811      22.96794427      40.14971383
O       30.78924874      24.44407194      41.75346830
O       29.32303336      24.11041043      40.11492885
C       33.57977710      22.27578376      35.33630940
O       34.03378063      23.13358090      34.49564238
O       33.73862300      21.01993798      35.12119186
O       32.95612029      22.67349359      36.38584987
C       33.96005555      19.31868374      37.69359476
O       33.76556152      20.54602059      38.01681543
O       35.14366308      18.90909597      37.41081178
O       32.96936184      18.50345577      37.64275358
H       35.39684527      23.20201990      39.57383167
H       35.42355853      21.83887667      40.23187583
O       35.23841051      22.27421298      39.39974945
