24
Properties=species:S:1:pos:R:3 pbc="F F F"
Ca      32.76336147       3.09990332      36.63081749
C       31.14437091       1.68216839      38.35874850
O       30.69111998       2.73580398      37.78162664
O       32.14882424       1.05797211      37.85864199
O       30.59643166       1.25569423      39.43881165
C       30.63171086       2.16436051      34.30033302
O       31.05420365       1.68924196      33.18479807
O       30.98179606       1.61396082      35.40629709
O       29.85913288       3.18987875      34.30990389
C       32.54926265       4.18941194      39.40338976
O       32.17129921       4.83905293      40.44443071
O       32.91085106       2.96190043      39.50886650
O       32.57711564       4.77079700      38.25889356
C       35.58526068       2.99836171      38.08654524
O       35.83041552       2.47380688      39.23258119
O       36.15209215       4.10035071      37.75042126
O       34.76380673       2.42737691      37.28165613
C       34.18701782       3.76003334      33.95124736
O       34.13538527       4.12487591      35.18123922
O       33.10210305       3.53793754      33.30140929
O       35.32378488       3.60691868      33.37420993
H       33.78008125       1.25376812      34.60796428
H       34.51606722       0.76495596      35.83730660
O       33.65831270       1.06735813      35.53890768
