24
Properties=species:S:1:pos:R:3 pbc="F F F"
Ca       7.24261407      26.84529374       6.47254454
C        9.37762996      26.81880359       8.16195607
O        8.76531638      25.70682222       7.96902279
O       10.04351275      27.00574561       9.24376314
O        9.31948840      27.74592380       7.27554674
C        5.22528637      24.56588330       6.70983209
O        6.20242389      23.91978706       6.18407686
O        4.47310553      23.99574117       7.58035989
O        5.00794393      25.78605581       6.37427591
C        6.52460136      29.01207560       9.19057031
O        7.08872900      29.22522241      10.32414211
O        5.77248295      29.91226660       8.66843000
O        6.72262207      27.90376160       8.57324995
C        8.63196536      26.12296950       3.37476888
O        7.96248288      26.78347779       2.50059574
O        8.02536717      25.55762364       4.35511540
O        9.90932801      26.03838067       3.27554123
C        5.44269890      29.47258512       4.92542811
O        4.73282660      29.13271846       3.91091702
O        5.74258683      30.70664642       5.11468709
O        5.86320626      28.57693837       5.74374956
H        8.72991429      28.04367903       3.89218655
H        8.21945320      28.85193949       5.06608591
O        8.62391743      28.01355819       4.84302269
