24
Properties=species:S:1:pos:R:3 pbc="F F F"
Ca      28.77505704      22.12852537      14.78485906
C       27.59217578      19.57606624      12.53448295
O       26.53106941      19.70586286      11.82324234
O       28.66145777      19.09570465      12.01051156
O       27.58034018      19.91484448      13.77292805
C       29.55918837      24.14167390      12.42443358
O       30.58421930      24.67634324      11.86577601
O       29.53747622      22.87794209      12.65063863
O       28.56080880      24.87252789      12.76757862
C       28.89899035      24.81285543      16.87857858
O       29.30615326      26.01688942      17.06078122
O       28.38384814      24.15491537      17.85348129
O       29.02300901      24.26074339      15.72600189
C       26.25845385      22.46400405      15.75312608
O       27.02918528      21.61903108      16.33677795
O       26.47571319      22.79383593      14.53137929
O       25.27286102      22.98218400      16.39246326
C       31.03947766      22.23167552      17.24232809
O       31.88483022      23.17538828      17.45075542
O       30.84554146      21.79516246      16.05048006
O       30.39735275      21.71585726      18.22734786
H       28.10416727      20.18150113      16.35419396
H       28.76139491      19.51919767      15.16201061
O       28.95266257      20.06036004      15.92803408
