28
Properties=species:S:1:pos:R:3 pbc="F F F"
Ca      26.86513976      29.80401067       8.88583927
C       24.66375165      26.85986556      10.04264240
O       23.67098661      27.10261732      10.81990967
O       24.68511079      25.78133244       9.34624759
O       25.64054565      27.69011576       9.97043685
C       29.60443688      30.03041752       6.46462620
O       30.67173088      30.45600286       7.03770226
O       29.53310862      29.99817952       5.18301454
O       28.61240591      29.62729210       7.17315984
C       29.04002829      28.36154086      10.30705090
O       30.29842850      28.53826474      10.49103101
O       28.20538519      29.27008125      10.66282502
O       28.61538177      27.27106077       9.77867645
C       28.42199309      32.55356952       9.60482301
O       29.51521199      31.89552163       9.74799766
O       28.26453280      33.67595178      10.20824479
O       27.48501957      32.08774653       8.86068383
C       25.18547289      27.84700077       6.69072141
O       25.17691023      28.63258646       5.67512675
O       24.11204250      27.23322080       7.03665928
O       26.26910128      27.67005182       7.35637147
C       23.97921534      31.23201217      10.18624433
O       25.22121883      31.00816560       9.94965176
O       23.52656086      32.43323795      10.15766899
O       23.18986633      30.25463296      10.45141224
H       24.78086443      30.86269817       7.48200508
H       25.88313293      31.09368553       6.47030147
O       25.70942859      30.69376964       7.32243165
