28
Properties=species:S:1:pos:R:3 pbc="F F F"
Ca      34.88034840      39.58305012      35.09918394
C       33.65417773      39.44680094      38.59794974
O       33.65368879      40.58868726      39.18510483
O       33.88636212      39.37324347      37.33726151
O       33.42395064      38.37833053      39.27176100
C       35.76446912      41.67557834      32.77248220
O       36.88251644      42.27342796      32.56949346
O       34.66036107      42.26250683      32.48073147
O       35.75063035      40.48980376      33.26482905
C       36.32519591      37.58419693      32.72686340
O       35.82303868      37.77906234      33.89241931
O       37.25921586      38.35146308      32.29377600
O       35.88434897      36.63015695      31.98922065
C       35.60530392      42.59631013      36.04311662
O       36.38542334      42.71603076      37.05590299
O       35.80569520      43.30469390      34.99112255
O       34.61840140      41.77606062      36.08635836
C       33.05393295      37.66390231      33.74577008
O       33.13147620      37.83359175      35.01614285
O       33.15683643      38.67109446      32.95606789
O       32.87518040      36.48679207      33.26502732
C       38.14352478      38.43025869      36.01314376
O       38.18956705      37.91591285      37.18871848
O       37.25709408      39.31635202      35.73434505
O       38.98645878      38.06143930      35.11755431
H       32.03697307      41.13592586      34.87336996
H       33.38408154      41.81636174      34.99253803
O       32.94058381      41.08572010      34.56160324
