24
Properties=species:S:1:pos:R:3 pbc="F F F"
Ca      17.07833762      41.77361502      15.57429232
C       16.83262848      41.63455625      12.67361830
O       17.70648934      40.98387287      13.35305553
O       17.19341716      42.30918923      11.64242563
O       15.59723646      41.60653484      13.02244195
C       20.13971745      43.00356594      14.64910761
O       21.41529027      43.12414232      14.56525961
O       19.37493220      43.81556872      14.01317495
O       19.62888940      42.07747478      15.37716324
C       17.04263823      44.62887603      17.68040195
O       17.33289097      43.50546312      17.13053814
O       17.36222950      45.72901312      17.10056283
O       16.42490655      44.65219801      18.80579821
C       15.96146299      39.31376538      16.11804176
O       17.22568677      39.51000848      16.22705602
O       15.34298396      39.68729080      15.05661843
O       15.31365654      38.75477592      17.07540001
C       15.26191638      43.99345896      15.39758543
O       15.03250793      45.14605490      15.91483574
O       16.28221089      43.82266978      14.63700438
O       14.46974672      43.01223036      15.63906218
H       15.81287736      40.56034211      17.76141555
H       14.82330374      41.59389770      17.26704516
O       15.74985222      41.47105657      17.47356331
