20
Properties=species:S:1:pos:R:3 pbc="F F F"
Ca      28.93350014      51.28793574      44.62846152
C       27.05707210      49.87845852      45.99282474
O       28.09128160      50.23271534      46.66634869
O       25.90817302      49.82091318      46.56329883
O       27.17098051      49.58616745      44.74771355
C       28.76827983      52.20918227      42.09713342
O       27.98143492      52.91875541      41.37184902
O       29.60103182      52.78103837      42.88969946
O       28.72977156      50.92796220      42.02197579
C       29.93143714      48.29905039      44.65983889
O       30.33043162      47.80547200      45.77601073
O       30.32201231      49.46759159      44.29842714
O       29.13993039      47.62508833      43.90621553
C       29.12868218      53.57290833      46.08240594
O       30.18624739      53.02426409      45.60365617
O       28.61377051      54.59332026      45.49735753
O       28.57925523      53.09389459      47.13944516
H       26.33399675      52.28601359      44.16256075
H       26.90483078      53.36800883      45.05439646
O       27.12201247      52.52863247      44.64878961
