24
Properties=species:S:1:pos:R:3 pbc="F F F"
Ca       1.12437741      17.81902766      42.17111222
C        0.44711928      19.60423542      44.30298219
O        0.09529510      20.23721903      45.36326933
O       -0.44524942      19.08735603      43.53801754
O        1.69180053      19.47728214      44.01434973
C        2.97505570      15.84353520      40.56600019
O        4.11202096      15.69477382      41.14378337
O        2.45150343      17.01204190      40.47040446
O        2.36380486      14.82443135      40.07973557
C       -1.42814187      15.40674948      40.99433619
O       -1.17604052      14.18438691      40.69279024
O       -2.64387300      15.81529781      41.05549992
O       -0.46439130      16.22147365      41.23111503
C        0.85250797      15.97110536      44.48248118
O        1.56910096      15.69908611      43.45235721
O        1.19375921      16.92831780      45.26730435
O       -0.21129021      15.29305229      44.72171487
C        0.36467295      19.82855285      39.74531418
O        1.49157931      20.37111606      39.45486137
O       -0.69728932      20.54768360      39.80649309
O        0.29955978      18.56669223      39.97361929
H        3.26662351      19.75467603      42.25221187
H        1.99551530      20.34261928      41.67731895
O        2.56122553      19.57183445      41.63155520
