24
Properties=species:S:1:pos:R:3 pbc="F F F"
Ca      12.97318585      13.22362367       8.71190989
C       12.75724719      15.56720036       6.60163231
O       12.65249727      16.62734844       7.31840971
O       13.41419087      14.55613858       7.04303427
O       12.21535922      15.52257080       5.43843742
C       14.99449634      14.55767008      11.26939739
O       14.39564924      13.58030333      10.69078497
O       14.31356846      15.44489447      11.90013200
O       16.27385013      14.65084259      11.21257482
C       15.62612842      11.37359562       8.14484861
O       16.59406593      10.60321404       8.48874220
O       14.61940587      11.52776845       8.92676549
O       15.66204025      11.98495981       7.01631079
C       11.87150723      11.73498192       5.68346040
O       12.25501741      12.68156961       4.90529130
O       11.26493397      10.71201440       5.19945412
O       12.10174172      11.80759611       6.94456091
C       10.57525452      14.73389047       8.99003999
O       10.43391224      13.47958204       8.75468684
O       11.52394317      15.14090249       9.75357677
O        9.77451450      15.58202513       8.45325252
H       11.84302685      11.49696799      10.81299649
H       10.90464247      12.53117335      10.22840322
O       11.77894920      12.42896206      10.60439807
