24
Properties=species:S:1:pos:R:3 pbc="F F F"
Ca      27.12855428      11.89361913      34.55493202
C       30.11612578      11.93720630      34.59538676
O       31.37032686      12.07753018      34.36045101
O       29.72556070      11.25046698      35.60719318
O       29.25236838      12.47213321      33.81073180
C       28.23096643      10.29440070      32.71934065
O       29.26944163       9.86751525      32.09645004
O       27.60945070      11.33427515      32.29385905
O       27.80768063       9.67509779      33.76142914
C       26.65440048      14.78021812      33.09199978
O       26.35311611      13.62223100      32.62622194
O       27.88597321      15.11763519      33.22628987
O       25.72411128      15.60122906      33.42239109
C       25.18490421      13.61561506      36.17025183
O       26.24616033      13.85632374      35.48874885
O       25.26938736      13.00029628      37.29403870
O       24.03849197      13.98439372      35.72483859
C       24.16828814      11.28423018      33.47072720
O       24.75350362      11.53431735      34.58584682
O       24.78415351      10.62677434      32.55584720
O       22.97377053      11.70728140      33.26353325
H       26.20942538      11.51607310      36.98940421
H       26.07997982      10.07954877      36.52947286
O       26.69245732      10.81479360      36.55223235
