24
Properties=species:S:1:pos:R:3 pbc="F F F"
Ca      17.71462285      32.21591918       1.30749851
C       20.91508852      30.71272910       1.84003153
O       21.24456471      29.49241573       2.06572069
O       21.77324354      31.52783668       1.34221108
O       19.73142655      31.12118858       2.12421418
C       16.97848161      35.11959423       0.47872217
O       17.47539993      35.02312460      -0.70128767
O       17.18814894      36.17501046       1.17928869
O       16.28208889      34.15557440       0.96282983
C       19.64767249      34.44236683       1.58315935
O       20.51620143      35.37970168       1.45779161
O       18.85049250      34.43624253       2.58969917
O       19.58456841      33.50444700       0.70852784
C       18.14433632      29.67218964       0.20225596
O       17.12849900      29.90582082       0.95201921
O       18.55566906      28.46733546       0.03556730
O       18.74356113      30.64253811      -0.38766616
C       16.70177735      31.49893393       4.04695530
O       17.79187319      31.14904363       4.62826616
O       16.66722240      32.56861495       3.33755888
O       15.64809825      30.77544681       4.16935297
H       15.83750153      31.53003606      -0.94526394
H       15.76447449      32.93169329      -0.37788472
O       16.38618192      32.25807575      -0.65347668
