24
Properties=species:S:1:pos:R:3 pbc="F F F"
Ca      40.61099548      20.46481528      30.65130056
C       43.54335226      18.30032476      30.28780064
O       44.81337522      18.47591135      30.21804791
O       42.75804273      19.31374186      30.35800838
O       43.05817270      17.11155245      30.27911566
C       40.90484234      19.78023772      27.93833832
O       39.80468653      19.72067922      28.59770595
O       41.20040591      18.85568534      27.09780231
O       41.71185309      20.76165197      28.12331234
C       40.35470527      17.84502217      32.57831415
O       40.08806606      16.61067748      32.34599847
O       41.36661185      18.15761513      33.30426500
O       39.60231637      18.76635497      32.09485708
C       40.37140210      21.59323303      33.46262593
O       40.09607917      20.64874175      34.28772576
O       41.34403771      21.45956465      32.63511822
O       39.67926714      22.67468678      33.47055984
C       41.83560349      23.51383342      29.78744724
O       42.14460149      24.01170286      28.64494850
O       41.16486488      24.21125217      30.63146971
O       42.19885244      22.31917345      30.08660433
H       38.94470239      22.43868382      31.80875780
H       39.10873686      22.72146933      30.33057640
O       39.01749007      22.00489109      30.95860627
