24
Properties=species:S:1:pos:R:3 pbc="F F F"
Ca      19.29828260      25.90855350      25.57858847
C       21.05384534      27.32038706      22.94899019
O       20.03837114      26.58872926      23.23560154
O       20.88622215      28.54876859      22.61486649
O       22.23590693      26.82024575      22.98429617
C       18.76369506      28.55762929      25.01708089
O       17.82447004      27.81441189      24.55432958
O       19.16989986      29.57264949      24.34374127
O       19.30368350      28.27992623      26.14842875
C       17.22098504      25.24937229      23.48807560
O       17.71617116      25.70282714      22.39362309
O       16.01283095      25.53724244      23.81388409
O       17.93758979      24.51730167      24.26216023
C       20.80213097      23.92976029      27.28636922
O       20.97014427      24.28340023      26.06351460
O       20.10557916      22.88726368      27.56327973
O       21.33758971      24.61385196      28.23186682
C       16.75602260      25.97388502      27.17140161
O       16.51915386      27.20018917      27.46927814
O       15.86359336      25.27613038      26.56694468
O       17.88738630      25.44693663      27.47306705
H       21.37559590      27.66797897      25.31742464
H       21.91007532      26.78777996      26.42714379
O       21.36544077      26.76692391      25.64027103
