24
Properties=species:S:1:pos:R:3 pbc="F F F"
Ca      43.25285608      11.70082542      18.55562598
C       45.87781635      11.75839240      16.31870788
O       46.51289713      12.87060931      16.40982232
O       46.30158115      10.84008210      15.52764186
O       44.82431009      11.56089097      17.02565463
C       42.23441870      14.33893969      18.23656723
O       43.46019202      14.03766692      18.00125625
O       41.78256201      15.49453110      17.90627786
O       41.46387326      13.48924693      18.81357580
C       41.19127336      11.71587105      16.17863034
O       40.01903804      11.89460897      15.68611301
O       42.21397406      12.24442900      15.60997749
O       41.34221152      10.99819861      17.23258492
C       42.47601491       9.79577401      20.96263915
O       42.15136490       9.97262773      19.73301089
O       42.24252817      10.71609460      21.82702030
O       43.02279576       8.69366665      21.33013208
C       43.30092149      14.17883847      21.12454582
O       43.48263539      15.26055988      20.45707776
O       42.77662251      14.22747629      22.29561363
O       43.65272627      13.04950106      20.62506068
H       45.16015714       9.95529731      19.07178046
H       45.75542407      11.16828079      19.75458612
O       44.92871962      10.70488227      19.62022500
