24
Properties=species:S:1:pos:R:3 pbc="F F F"
Ca       8.27471000      43.28798544      26.66358020
C        9.16100784      40.86048826      28.80085359
O        9.99944824      40.05854590      28.25079985
O        8.40602458      41.59954816      28.07116699
O        9.07937895      40.92526327      30.08061648
C        7.93598307      44.62374282      30.25328925
O        8.70237969      45.64605585      30.38043914
O        7.44326328      44.32965609      29.10464035
O        7.66821099      43.89129048      31.27332158
C        9.63217880      42.22975333      24.60538339
O       10.07760752      41.13620760      25.10976963
O       10.04157633      43.35927459      25.05840649
O        8.77657027      42.19378130      23.64867324
C        5.46959854      42.93564271      25.97891355
O        6.43290158      42.70040970      25.16320775
O        4.25274800      42.82704385      25.58376230
O        5.72311783      43.27237181      27.19176342
C        7.81057776      46.02791295      24.64746154
O        8.40132488      45.34520795      23.73444768
O        7.27130713      47.15651869      24.35746271
O        7.77002613      45.58794173      25.85305055
H        9.82021426      44.43581799      28.66072040
H       10.28520840      44.76583846      27.25830744
O        9.50081115      44.72269457      27.80519986
