24
Properties=species:S:1:pos:R:3 pbc="F F F"
Ca      14.01535283      34.25997694       1.69292192
C       13.79090052      34.89771019      -0.93050506
O       14.29183262      35.92146478      -0.33919544
O       12.85558536      35.05053656      -1.79680936
O       14.22604727      33.72122290      -0.65631895
C       13.83146192      36.84426459       2.98992822
O       13.04482118      37.33738425       3.87688002
O       13.95351003      37.41996567       1.84873293
O       14.50491981      35.78205252       3.24841267
C       16.97848161      35.11959423       0.47872217
O       17.47539993      35.02312460      -0.70128767
O       17.18814894      36.17501046       1.17928869
O       16.28208889      34.15557440       0.96282983
C       12.05081066      31.93659980       0.06769114
O       12.26216466      30.74457119      -0.36013610
O       11.45060398      32.79022185      -0.68045628
O       12.43840052      32.27459018       1.24420190
C       11.20584054      36.36147498       2.03092562
O       11.21663358      37.63289431       1.85195014
O       10.59797107      35.86107975       3.04520130
O       11.81307368      35.59132780       1.20219343
H       12.34630320      33.83933674       4.28990333
H       13.73910546      34.42668388       4.37369113
O       13.24083503      33.71435773       3.97300441
