24
Properties=species:S:1:pos:R:3 pbc="F F F"
Ca      38.10079861      19.38447903      33.64998208
C       38.48046877      17.00216563      35.61812672
O       39.72450850      16.90234032      35.91990353
O       38.12320181      17.08813273      34.38782638
O       37.59453104      17.02757863      36.54717876
C       40.35470527      17.84502217      32.57831415
O       40.08806606      16.61067748      32.34599847
O       41.36661185      18.15761513      33.30426500
O       39.60231637      18.76635497      32.09485708
C       40.37140210      21.59323303      33.46262593
O       40.09607917      20.64874175      34.28772576
O       41.34403771      21.45956465      32.63511822
O       39.67926714      22.67468678      33.47055984
C       36.39382235      19.24752511      30.59139457
O       36.35272832      19.39877467      31.86579206
O       35.39604914      19.61046128      29.86932847
O       37.42782657      18.72243896      30.04023792
C       37.81562245      21.04195920      35.58607054
O       38.42324531      22.04990323      36.09939222
O       37.15821275      21.17787926      34.49154140
O       37.85534069      19.90097573      36.17363757
H       36.13680929      18.52746322      35.55816168
H       36.21925868      17.53431142      34.41853594
O       35.91963693      18.41789989      34.63238494
