24
Properties=species:S:1:pos:R:3 pbc="F F F"
Ca      36.61371749      48.30190044      31.36051620
C       36.63570661      51.24440836      33.33410806
O       37.86390180      51.53913244      33.56503455
O       35.71346981      52.10619613      33.56959412
O       36.33042858      50.09053145      32.86079414
C       35.54416161      46.92020021      34.11352186
O       36.60168519      47.01485947      33.39148430
O       34.69704714      47.88472151      34.14092234
O       35.33479362      45.86188927      34.80979597
C       33.91870686      48.65112103      30.05159319
O       34.50417537      49.34086530      30.96271146
O       33.80057268      49.12495623      28.86408255
O       33.46258413      47.48236557      30.32475919
C       38.20075644      50.29515160      29.86457625
O       37.16725419      49.72361036      29.36072266
O       38.75713422      49.80658450      30.91357595
O       38.67514241      51.35784945      29.32209533
C       38.60204022      45.85323918      31.09555573
O       39.08653639      45.16389065      30.12667966
O       38.84077283      47.11267442      31.16963956
O       37.86850823      45.28555481      31.98343146
H       36.73379037      47.52252641      28.50684426
H       36.72975060      46.13968683      29.12298834
O       36.36753065      47.01876240      29.23369152
