24
Properties=species:S:1:pos:R:3 pbc="F F F"
Ca      20.27185339      40.74618116      24.10263396
C       21.79334201      39.18147392      26.14903474
O       22.34565816      38.49294529      25.21654794
O       21.61831426      40.44435428      25.99686769
O       21.42638302      38.60914051      27.23826918
C       23.15534736      42.02281290      22.32870188
O       24.14266054      42.02242458      23.14959544
O       23.35208662      42.28872800      21.08804210
O       21.97290031      41.74739558      22.74657480
C       19.38753251      43.02749803      25.43751023
O       18.69123036      41.96173670      25.60476431
O       20.55660547      42.95461686      24.91156863
O       18.91767370      44.16525157      25.80276040
C       18.54903352      38.27044109      24.01620974
O       18.93941849      37.35919651      23.20019019
O       19.36043384      38.73420918      24.89666622
O       17.34959816      38.72341223      23.94673613
C       18.04644718      42.15083079      22.32411514
O       18.66466176      41.02988655      22.22433019
O       18.63381657      43.16312385      22.85224689
O       16.83648315      42.25597517      21.90746842
H       19.43483049      39.17638539      22.01473488
H       20.63733402      38.45213961      22.58161094
O       20.34931512      39.30825945      22.26485279
