20
Properties=species:S:1:pos:R:3 pbc="F F F"
Ca      36.26951215      26.45568431      27.18048107
C       38.14725243      24.20593198      28.56154170
O       38.33253902      24.40597239      29.81625633
O       39.10468657      23.75371049      27.83526946
O       37.00515297      24.46007226      28.03269645
C       34.47386683      27.35538710      29.04207446
O       34.19430092      27.16043941      27.80413482
O       35.60436449      26.96996997      29.51333337
O       33.61803508      27.92467994      29.81156373
C       39.47031745      27.27544861      27.70675945
O       40.55783348      27.16375730      27.03334381
O       39.47008594      27.04155798      28.96927615
O       38.38274423      27.61969753      27.11741186
C       35.79133660      26.00118579      24.40791245
O       35.60118289      25.79649503      23.15467895
O       35.12263279      26.91154760      25.01842634
O       36.64183342      25.28774611      25.05313307
H       34.06231298      24.73036175      27.66982602
H       33.90910692      24.77914723      26.16448783
O       34.56851426      24.74759264      26.85760957
