24
Properties=species:S:1:pos:R:3 pbc="F F F"
Ca      17.67174144      42.43777016       5.43089836
C       17.98198504      44.36628041       8.32525104
O       18.46502684      45.51680915       8.62792413
O       17.50965774      44.15738584       7.14969723
O       17.95981453      43.42848308       9.20200726
C       19.07789455      45.37074903       5.10402491
O       19.92353456      45.98448470       5.85026565
O       18.10285407      46.01613315       4.57352598
O       19.20314313      44.11022248       4.89416899
C       15.42452632      41.34992099       7.52429257
O       15.60641819      40.20270184       8.07152155
O       15.07831362      42.35625138       8.24268794
O       15.58884715      41.49080976       6.25866821
C       15.51560977      43.48594770       2.97271745
O       16.28324120      43.68195596       3.98314949
O       15.33512944      44.42191993       2.11246570
O       14.93589685      42.35082722       2.81752517
C       19.21174238      40.27899742       6.55647148
O       18.17491855      40.60805266       7.23865469
O       19.50528491      40.92161571       5.48431033
O       19.94858563      39.30000617       6.94025930
H       16.27761925      41.27335562       3.56977318
H       17.59681900      40.59297235       3.27197152
O       17.10414740      41.01354304       3.97668905
