24
Properties=species:S:1:pos:R:3 pbc="F F F"
Ca      39.74155560      27.57815643      22.79273319
C       37.65866139      28.93599216      24.39976751
O       38.79258485      29.27572961      24.89720646
O       37.61022747      28.11444943      23.41418588
O       36.57392784      29.42783557      24.87944702
C       41.93425245      30.57643412      23.43072875
O       42.81482219      31.11263839      22.66539266
O       41.38943677      29.46178383      23.09998978
O       41.60768237      31.14854528      24.53286218
C       38.59426766      27.45808001      19.84489432
O       38.35209049      27.06125366      18.64800887
O       39.38793828      26.78431625      20.59641663
O       38.04399556      28.52951783      20.28972876
C       42.36747149      26.53968956      23.19092439
O       41.91525431      26.63893301      21.99329854
O       43.46315031      25.90822361      23.41317603
O       41.72304339      27.07031488      24.16653006
C       40.50116112      24.28470065      22.82573001
O       41.41146883      24.00685642      21.96388539
O       39.48293372      24.98657023      22.48043007
O       40.61144402      23.86470274      24.03406401
H       39.74737535      25.54810835      24.59845648
H       38.81934390      26.35651694      25.48000517
O       39.34295605      26.41177852      24.68062602
