24
Properties=species:S:1:pos:R:3 pbc="F F F"
Ca       8.58691012       2.78840384      21.22158617
C        7.31581695       5.99073194      20.26360670
O        8.20272468       6.81012352      19.82825655
O        6.10952685       6.05855371      19.82785887
O        7.63108877       5.11097939      21.14421283
C        8.11237210       0.37224531      19.40337444
O        7.66640686       0.85767160      20.50525127
O        9.31189790      -0.08147280      19.34065491
O        7.36291433       0.35171732      18.36099841
C        5.60960265       2.69095774      22.05262424
O        6.64372674       2.72966973      22.81271931
O        5.18011058       3.76625787      21.49771701
O        5.01216259       1.57490211      21.83782072
C        9.63286850       2.73964870      18.69844882
O       10.44019691       2.62220642      19.68986287
O        8.44025382       3.17509889      18.88935184
O       10.02276952       2.43353123      17.51381751
C        9.34866626       0.42491877      23.13053862
O        8.09175987       0.57289105      23.34721009
O        9.95013208       1.18979120      22.29276476
O       10.00410684      -0.48792594      23.75164102
H       10.41956475       4.32412837      22.94671478
H        9.02987385       4.91219980      22.82495109
O        9.68453758       4.41011109      22.33961189
