24
Properties=species:S:1:pos:R:3 pbc="F F F"
Ca       6.34626910      42.10117035      29.47201933
C        9.16100784      40.86048826      28.80085359
O        9.99944824      40.05854590      28.25079985
O        8.40602458      41.59954816      28.07116699
O        9.07937895      40.92526327      30.08061648
C        7.93598307      44.62374282      30.25328925
O        8.70237969      45.64605585      30.38043914
O        7.44326328      44.32965609      29.10464035
O        7.66821099      43.89129048      31.27332158
C        5.92108068      42.01675303      32.34140260
O        5.15241581      42.63328608      31.51818385
O        5.85962365      42.27930843      33.59676442
O        6.75087894      41.13733335      31.90931283
C        3.11835378      42.29186816      29.01017216
O        2.34405888      42.07453293      30.01111696
O        2.84375240      43.23033263      28.17798469
O        4.17243013      41.57709454      28.84683413
C        5.46959854      42.93564271      25.97891355
O        6.43290158      42.70040970      25.16320775
O        4.25274800      42.82704385      25.58376230
O        5.72311783      43.27237181      27.19176342
H        6.92661932      39.19207340      28.89588209
H        6.92215258      40.01598980      27.62582812
O        6.47067703      39.91427899      28.46371669
