28
Properties=species:S:1:pos:R:3 pbc="F F F"
Ca      11.07849179      35.79057736      41.82192520
C       12.09440629      32.49376134      40.32972051
O       12.33861821      31.31175279      40.76774997
O       11.67285876      33.40194661      41.13355549
O       12.27013524      32.76713029      39.08752800
C       12.58000341      38.86336337      42.07404723
O       12.63074055      37.59357852      41.89039105
O       13.18274981      39.65412056      41.26160858
O       11.91588576      39.34298865      43.06276590
C       13.79090052      34.89771019      44.26479026
O       14.29183262      35.92146478      44.85609988
O       12.85558536      35.05053656      43.39848596
O       14.22604727      33.72122290      44.53897637
C        9.49227372      38.17582393      39.78501242
O        9.61797921      37.54126347      40.89415050
O        9.18470396      37.53985026      38.71282076
O        9.66345751      39.44788499      39.75018639
C        9.53273542      37.21416024      44.49592747
O       10.57831191      36.67240065      43.98414463
O        8.78918245      36.54231715      45.29867969
O        9.22356725      38.42345646      44.19480780
C        8.26684810      34.51355041      42.53742480
O        9.44919339      34.08333573      42.79360835
O        8.10102166      35.70235532      42.08146467
O        7.25103046      33.75191720      42.72895578
H       11.76854854      35.77670469      39.00124560
H       10.39618906      36.36447940      39.25233380
O       11.11176211      35.90010165      39.68654583
