28
Properties=species:S:1:pos:R:3 pbc="F F F"
Ca       9.07332130      33.71616825      21.12124602
C        8.72609999      31.10953063      19.65023320
O        8.94102667      30.84392421      20.88793910
O        8.34553208      32.28555745      19.30269156
O        8.88146750      30.19616811      18.76125275
C       11.08732575      31.92235419      23.22462193
O       10.16301751      32.72540035      22.83806386
O       10.85803241      31.08900741      24.17415534
O       12.24092734      31.95265482      22.66164657
C        6.26736586      33.03070890      22.86015358
O        7.45432752      32.73317788      22.47120674
O        6.09247575      33.65396706      23.96903652
O        5.25583358      32.71218467      22.13627031
C       10.02424156      35.89726781      18.77541343
O        9.66349127      34.69936487      19.06445462
O       11.05898125      36.40936023      19.33731405
O        9.34377244      36.58702392      17.93288448
C       12.16516609      34.63246972      22.48922439
O       11.08954136      34.83840068      21.81894056
O       12.12133989      34.57312347      23.77110338
O       13.28646516      34.49792526      21.87828852
C        7.36204559      36.51429579      22.11492802
O        6.18317536      36.04346443      21.92196002
O        7.52716232      37.77313503      22.30653648
O        8.37565977      35.72611242      22.11756369
H       11.02027588      31.69527393      20.04757043
H       11.41055822      32.46121874      21.29372588
O       11.19582303      32.57982112      20.36849448
