24
Properties=species:S:1:pos:R:3 pbc="F F F"
Ca      23.72554350      36.88815390      26.41746871
C       21.79334201      39.18147392      26.14903474
O       22.34565816      38.49294529      25.21654794
O       21.61831426      40.44435428      25.99686769
O       21.42638302      38.60914051      27.23826918
C       26.45100910      35.26785347      26.94348866
O       25.17330387      35.24501277      27.06839742
O       27.17234063      35.85332577      27.82980535
O       27.00675783      34.71317060      25.92755321
C       21.92343143      35.87236531      29.31234027
O       21.79233858      34.60027770      29.19717864
O       22.73006185      36.50708504      28.54089185
O       21.25230254      36.50891461      30.20287121
C       23.31742268      34.25378072      25.46474899
O       23.47152462      35.12204432      24.53144528
O       22.53724226      34.50522112      26.45306086
O       23.95432341      33.13990050      25.41686841
C       26.05216427      38.36004291      24.39355763
O       26.76679181      38.78471593      25.37213351
O       26.17005815      38.89574310      23.23261967
O       25.21506877      37.40394812      24.57741752
H       24.46744036      37.23108818      28.76142913
H       25.72902716      36.66205860      28.14783376
O       25.09689501      37.37478528      28.05476793
