27
Properties=species:S:1:pos:R:3 pbc="F F F"
Ca      15.18945994      30.69362377       8.62244908
C       18.00418086      30.21475495      10.14388523
O       18.41951480      30.93892611       9.16831906
O       16.74595474      30.11656226      10.38027610
O       18.84761653      29.59757449      10.88978074
C       13.59799029      28.90589609       5.99420108
O       14.35938574      29.70118851       6.65483777
O       13.49574766      29.02583908       4.71991150
O       12.92911131      27.99879213       6.60935710
C       12.78948855      30.69074162      10.45947694
O       12.47135121      31.35886339       9.41016297
O       11.87526769      30.29034368      11.26727638
O       14.02069582      30.41215380      10.69437146
C       15.94169628      27.25037102       8.31608740
O       15.68187828      27.14279105       7.06326153
O       15.47075355      28.23878432       8.98683585
O       16.68151875      26.37554483       8.89573671
C       15.60239890      33.14179071       6.52626612
O       15.13565486      34.00590669       5.69915738
O       16.87105205      32.97479440       6.63250577
O       14.80020781      32.43796268       7.24024856
H       15.68327950      33.19135702       9.74413531
H       16.57043574      32.03391427      10.15055285
O       16.47844074      32.72210410       9.49164242
H       17.80750160      30.17475794       7.71512099
H       17.33599011      31.24150923       6.74991959
O       17.05689062      30.43342053       7.18041589
