17
Properties=species:S:1:pos:R:3 pbc="F F F"
Ca       9.83890626      28.24746249      18.72064464
C        8.72609999      31.10953063      19.65023320
O        8.94102667      30.84392421      20.88793910
O        8.34553208      32.28555745      19.30269156
O        8.88146750      30.19616811      18.76125275
C       11.36316999      28.69646463      21.02908452
O       11.86184824      28.92569109      22.18987129
O       10.75374842      27.58991951      20.79927605
O       11.48303659      29.56935305      20.09509174
C        8.45165211      26.51181966      17.20285478
O        9.45994433      26.03525244      17.83918424
O        7.38918987      25.80481188      17.06143630
O        8.50206820      27.69921246      16.71680733
C       12.57107553      29.09067782      16.62611844
O       13.74240642      28.61393892      16.84830246
O       12.44023604      30.27315617      16.14311875
O       11.53036351      28.38973647      16.89862892
