23
Properties=species:S:1:pos:R:3 pbc="F F F"
Ca       9.37130645      42.46202630      31.86877218
C        9.16100784      40.86048826      28.80085359
O        9.99944824      40.05854590      28.25079985
O        8.40602458      41.59954816      28.07116699
O        9.07937895      40.92526327      30.08061648
C        7.93598307      44.62374282      30.25328925
O        8.70237969      45.64605585      30.38043914
O        7.44326328      44.32965609      29.10464035
O        7.66821099      43.89129048      31.27332158
C       11.39786975      43.52697422      29.27378267
O       10.42731003      43.47728233      30.11295019
O       11.24081058      43.07315731      28.08296783
O       12.52897392      44.02008041      29.62889772
C       12.49706634      42.50415628      32.20998397
O       13.72317118      42.88115110      32.26652371
O       12.16814931      41.49595065      31.48611251
O       11.60177780      43.12790258      32.88678096
H       10.84200670      40.64856876      33.42673218
H        9.55141985      39.90913320      33.14474703
O       10.12169402      40.59556474      32.79858195
H        9.06600105      42.24304833      34.91696935
H        7.64086627      42.35583684      34.41880826
O        8.54793158      42.52125219      34.16169800
