21
Properties=species:S:1:pos:R:3 pbc="F F F"
Ca      36.33359011      26.30815699      17.50686445
C       34.53243789      25.95387245      15.13916076
O       33.64181798      26.08553551      14.22367297
O       34.19219291      25.56512564      16.31464756
O       35.76141905      26.22308346      14.88267831
C       37.46040930      23.81544877      17.11418909
O       37.75318678      24.79566090      16.33822961
O       36.49256703      23.92579399      17.95068282
O       38.14442506      22.73001835      17.06340989
C       38.59426766      27.45808001      19.84489432
O       38.35209049      27.06125366      18.64800887
O       39.38793828      26.78431625      20.59641663
O       38.04399556      28.52951783      20.28972876
C       34.25280057      25.83984679      19.87901849
O       35.34765225      26.45811067      19.61882848
O       33.52745219      26.20901586      20.87211234
O       33.87697388      24.86051156      19.13854124
C       34.41408367      28.62178368      16.05146801
O       33.31910654      27.99598654      16.29241922
O       35.50918617      28.23322801      16.59775484
O       34.41425596      29.63510154      15.26289880
