28
Properties=species:S:1:pos:R:3 pbc="F F F"
Ca      10.02870632      39.04417331      26.03899285
C       10.61432865      36.84665561      28.27477829
O       10.21215711      37.46484417      29.32585201
O       11.65702274      36.09932659      28.32903135
O        9.96765687      36.96735689      27.17209896
C        9.16100784      40.86048826      28.80085359
O        9.99944824      40.05854590      28.25079985
O        8.40602458      41.59954816      28.07116699
O        9.07937895      40.92526327      30.08061648
C       12.87801925      37.50294671      25.31444357
O       13.44401805      37.39311733      26.46171745
O       11.68361779      37.06394739      25.14315731
O       13.50600438      38.05279216      24.33875970
C        9.63217880      42.22975333      24.60538339
O       10.07760752      41.13620760      25.10976963
O       10.04157633      43.35927459      25.05840649
O        8.77657027      42.19378130      23.64867324
C        6.38955116      39.77315092      25.35859795
O        5.36524428      40.08764316      26.06608928
O        7.51683035      39.54208737      25.92825152
O        6.28533405      39.68470113      24.08189544
C       10.37954964      38.67803472      22.55276415
O       11.20032801      37.72881498      22.28080637
O       10.19712235      39.62996961      21.71062606
O        9.75056681      38.68184929      23.67214896
H       12.83550627      39.65887823      26.51018882
H       12.77437226      39.63709380      24.99767990
O       12.24105675      39.80569930      25.77445429
