24
Properties=species:S:1:pos:R:3 pbc="F F F"
Ca      44.30220684      22.13312709      42.15793096
C       45.74564162      21.56518905      39.86387795
O       45.24835587      20.52149673      40.42250953
O       44.98443775      22.55150148      39.55337442
O       47.00422541      21.62280988      39.61628413
C       43.37137847      23.85008266      44.21168052
O       43.04266599      24.79408155      45.01755167
O       44.30739768      23.03094395      44.53016395
O       42.76006565      23.72164976      43.08991561
C       44.20898168      19.00807946      42.68545712
O       44.58224797      17.85920004      43.12066033
O       44.84614578      20.06586344      43.03726519
O       43.19747372      19.09935744      41.89985321
C       44.80021829      25.18011425      40.90510399
O       45.38263343      26.31886633      40.79244194
O       45.33800820      24.25086637      41.60933197
O       43.68574942      24.96679006      40.30418111
C       41.44252291      22.07778417      40.42334471
O       42.42534580      21.31068236      40.73038019
O       41.44403542      22.70610497      39.30358315
O       40.46361385      22.22543958      41.24101842
H       46.99657662      21.49329609      42.98087946
H       47.09027475      23.00293995      43.04484226
O       46.54746541      22.29198415      42.70406123
