24
Properties=species:S:1:pos:R:3 pbc="F F F"
Ca      40.59719204      48.49900239      30.55101686
C       38.20075644      50.29515160      29.86457625
O       37.16725419      49.72361036      29.36072266
O       38.75713422      49.80658450      30.91357595
O       38.67514241      51.35784945      29.32209533
C       38.60204022      45.85323918      31.09555573
O       39.08653639      45.16389065      30.12667966
O       38.84077283      47.11267442      31.16963956
O       37.86850823      45.28555481      31.98343146
C       43.07483279      46.97530980      31.42844256
O       43.40938960      46.71801058      32.64109386
O       41.96249792      46.53494812      30.96213039
O       43.85741608      47.66411050      30.67892849
C       38.47547937      49.01375745      27.37650745
O       39.60272660      48.94121567      27.98700576
O       38.11428387      50.11513204      26.82408650
O       37.70413637      47.98837919      27.32868945
C       40.83679765      49.39958381      33.07773932
O       39.90840496      48.70452192      33.62876758
O       40.72183044      50.67594322      32.99808459
O       41.87490351      48.81721543      32.59624270
H       42.90692519      48.36590508      29.17979129
H       42.29008912      49.57252604      28.50490291
O       42.06360627      48.76754934      28.97068189
