28
Properties=species:S:1:pos:R:3 pbc="F F F"
Ca      17.05756720      49.54938225      28.45755515
C       13.76151518      47.93818004      29.36413637
O       14.87249502      48.58179512      29.35238599
O       12.68784590      48.50307561      28.94368219
O       13.72613966      46.72620933      29.78666456
C       19.70514833      51.45085600      29.32705212
O       20.49150704      51.68144997      28.33856081
O       18.43707168      51.38451295      29.13671595
O       20.18740095      51.27963138      30.50466102
C       20.50149921      48.90121969      26.90208298
O       21.41577570      49.77416824      26.67688242
O       19.35414224      49.27237041      27.34307626
O       20.73202845      47.65793740      26.67901041
C       17.02642493      49.32430622      25.05051154
O       17.55990941      48.15660234      25.07279443
O       16.29099248      49.67528177      24.05824630
O       17.21757226      50.13616720      26.02671709
C       14.94629096      51.53746070      28.41064135
O       15.63262468      51.28720690      29.46656568
O       14.06405361      52.47026393      28.42451047
O       15.13346309      50.84665375      27.34461629
C       18.41166210      48.23037718      31.34332023
O       17.73519992      48.71586162      30.36589517
O       19.11863282      49.00629958      32.08277451
O       18.37132356      46.97072980      31.58891418
H       16.84392994      47.92495483      26.41761097
H       15.92367397      47.08255332      27.27515695
O       16.22810679      47.98113469      27.14825365
