23
Properties=species:S:1:pos:R:3 pbc="F F F"
Ca      43.27013396      38.42250833      37.41666417
C       43.66137758      36.13930264      39.76078121
O       44.09542104      35.03677086      39.26612340
O       44.06103150      37.26040864      39.27906074
O       42.83744496      36.12083160      40.74538784
C       40.75547445      39.84497397      35.52583731
O       40.05000287      40.15818517      36.55193004
O       40.45928386      40.32495966      34.37234441
O       41.76468835      39.06180703      35.65542216
C       43.82314971      35.05479752      36.42298218
O       45.02519598      34.63529787      36.25655207
O       43.60333060      36.29889468      36.65209386
O       42.83990784      34.23261791      36.34647693
C       43.78510162      41.56325900      37.46394546
O       43.87172566      40.57160335      38.27497069
O       43.54823623      42.74212662      37.91429767
O       43.94751798      41.37806796      36.20380331
H       46.01994059      39.33934079      37.42432131
H       45.10623628      39.93412575      36.37395448
O       45.37923398      39.09948504      36.75484680
H       40.80428062      39.68845804      38.16649047
H       41.95093926      40.09527812      39.06736036
O       41.55124969      39.33318310      38.64820434
