20
Properties=species:S:1:pos:R:3 pbc="F F F"
Ca      17.34582292      22.02772679       4.86865218
C       16.13839657      25.12940114       3.99561538
O       15.04543575      25.43384012       4.59678741
O       16.40536098      25.64319751       2.84957962
O       16.96517088      24.31245957       4.54123948
C       17.56087279      22.68198569       7.60308899
O       18.30918847      23.21416988       6.70561105
O       16.66252556      21.82856408       7.26647596
O       17.71600009      22.99750554       8.83801693
C       16.15251785      21.26005304       2.40559121
O       15.61913253      20.83270849       1.31860011
O       17.07701165      20.57764815       2.97857386
O       15.75378748      22.36433147       2.92545314
C       20.66528129      22.10522160       3.33721239
O       19.55385795      22.47917211       3.86024176
O       21.02785017      22.57247504       2.19752880
O       21.41654654      21.26791157       3.95622226
H       18.93740334      19.63632309       5.94482157
H       17.60728130      19.94942532       6.59646375
O       18.05420779      19.94976361       5.75000739
