23
Properties=species:S:1:pos:R:3 pbc="F F F"
Ca      14.10277161      35.10051710      13.68344941
C       12.44717664      34.05246516      16.58341937
O       12.35030640      33.08417149      17.42108232
O       12.17161195      35.25090358      16.95283134
O       12.83109047      33.82398147      15.37964986
C       15.89532885      32.20669483      13.26218824
O       15.96078746      32.52324973      12.01954436
O       16.28969689      31.04834597      13.65123542
O       15.42688949      33.04507916      14.11443931
C       17.17160945      36.26126990      14.57463817
O       16.40955518      35.68745765      13.71517993
O       18.16175029      36.97631208      14.17841668
O       16.93666444      36.12945700      15.83005910
C       12.15454939      37.59057546      13.63636185
O       13.34175207      37.96516640      13.32189796
O       11.16081453      38.38163872      13.44830298
O       11.95952712      36.42028814      14.12733031
H       11.97908046      35.54040679      12.17046166
H       13.02713144      35.55157725      11.07805168
O       12.76400680      35.08243415      11.86982315
H       15.19089238      36.59213357      16.00853545
H       14.08836401      35.64119092      16.42330584
O       14.56936684      35.95448570      15.65733300
