26
Properties=species:S:1:pos:R:3 pbc="F F F"
Ca       7.68702209      31.93967719      16.88424278
C        8.72609999      31.10953063      19.65023320
O        8.94102667      30.84392421      20.88793910
O        8.34553208      32.28555745      19.30269156
O        8.88146750      30.19616811      18.76125275
C        4.30153983      32.34910615      15.49640610
O        5.42749253      32.08113179      16.05235393
O        4.25552550      33.14695002      14.49142545
O        3.22180433      31.81795610      15.94441225
C        9.46740315      34.19715835      14.76436321
O       10.03391230      33.57508729      13.79444002
O        8.98504843      33.53816047      15.75517687
O        9.38324873      35.47822729      14.74347273
C        8.84132002      30.52795693      13.95512594
O       10.04889079      30.10598515      14.06634125
O        8.09749344      30.62737582      14.99699613
O        8.37377143      30.83908974      12.80046113
H        6.99422150      29.30194418      18.04322203
H        7.21514455      29.40141059      16.54883433
O        6.74934472      29.81700299      17.27446889
H       10.15136147      30.87825140      17.51267080
H       10.33407377      32.38107642      17.51799499
O       10.13219015      31.64513943      16.94017881
H        7.89854137      34.52497626      17.65492687
H        6.96743198      33.78744314      18.59352979
O        7.08053847      34.02824943      17.67404561
