26
Properties=species:S:1:pos:R:3 pbc="F F F"
Ca       8.12330651      40.16021724       0.36694827
C        5.82786268      38.32508145      -0.82272978
O        6.00609260      39.59184094      -0.71223593
O        5.37641106      37.83354251      -1.91965058
O        6.09979734      37.55000182       0.16416319
C        6.76808634      39.01415734       3.15005608
O        6.48421691      39.64536182       2.06855012
O        6.16180335      39.30825280       4.24302672
O        7.66456052      38.09497385       3.14047693
C        7.16531088      41.27861029      -2.56114385
O        7.22488357      40.39512932      -3.49096010
O        8.16127844      41.44385653      -1.76781068
O        6.11209972      42.00095132      -2.42842805
C        9.53273542      37.21416024      -0.69936785
O       10.57831191      36.67240065      -1.21115070
O        8.78918245      36.54231715       0.10338437
O        9.22356725      38.42345646      -1.00048753
H        7.18223597      42.83859153       0.21766309
H        8.13239050      42.98149264       1.38756940
O        8.00160626      42.49493038       0.57370005
H        9.86093222      40.68343261       2.79954613
H        9.33050018      39.26796275       2.71598748
O        9.28807559      40.11917241       2.28024164
H       10.89398450      40.32707397      -0.88758853
H       10.86451411      40.57150405       0.60615865
O       10.35708409      40.70967701      -0.19362639
