24
Properties=species:S:1:pos:R:3 pbc="F F F"
Ca      34.59555160      44.95981011      21.91148351
C       34.62095904      45.34727314      24.71677972
O       34.36664456      46.34090471      23.94433259
O       34.30997028      45.40548538      25.96118794
O       35.19559172      44.29953923      24.24698710
C       33.09003128      42.34869450      20.31152884
O       31.84880641      42.26428486      20.62909229
O       33.94788079      42.75399246      21.17661861
O       33.47527810      42.01511174      19.13298470
C       33.91020982      48.08560936      21.38709823
O       34.43210865      49.24349911      21.19584786
O       32.84000004      47.97174271      22.08820838
O       34.48489720      47.03704207      20.91794236
C       37.49969486      44.93281705      21.73809559
O       36.90479235      45.85690497      22.40203068
O       38.71055995      45.10209665      21.34591261
O       36.88801537      43.83442265      21.47725945
C       35.11069324      44.93781929      18.25523298
O       34.85251527      46.04080090      17.65072310
O       35.75919385      44.01007480      17.64910297
O       34.73117810      44.76740424      19.46996895
H       31.91829871      45.60120597      21.65686513
H       32.10741295      44.30132269      20.90424674
O       32.43285105      45.19998221      20.95651663
