24
Properties=species:S:1:pos:R:3 pbc="F F F"
Ca       8.28483475      20.94349296      20.22183333
C        5.94912286      23.32743690      18.87626512
O        6.49903434      22.51423435      19.70388530
O        5.89407430      23.03313981      17.62765990
O        5.46059302      24.43813306      19.29620371
C        9.31911510      23.86376552      21.54678498
O        9.58423667      22.60861520      21.60133673
O        9.81692375      24.58486403      20.60824012
O        8.54663359      24.39545859      22.42384584
C        5.42866130      19.09970198      19.26032298
O        6.48937218      19.41663300      19.91078625
O        4.70403665      20.01635905      18.72805024
O        5.09515152      17.86581161      19.13809003
C        8.74055990      21.17764686      17.39553392
O        8.94595738      22.29450020      17.99477146
O        8.99063556      20.07102440      17.99676502
O        8.27339872      21.16719034      16.19958961
C        7.37960717      20.34520631      22.80750585
O        8.20536214      19.48820889      22.32549051
O        6.65659839      21.05436051      22.01819400
O        7.28392241      20.49997636      24.07854689
H       10.96093159      19.90067192      19.71650517
H       10.05586623      18.96162646      20.48523501
O       10.44616967      19.83491231      20.52082355
