22
Properties=species:S:1:pos:R:3 pbc="F F F"
Ca       5.11692359      35.14536012      17.13786435
C        4.93661083      37.45178161      18.82820080
O        5.16831688      38.46408281      19.58332685
O        4.61462486      37.62891238      17.59791355
O        5.01934255      36.26260834      19.30535802
C        4.61861676      32.35979420      18.93537306
O        3.40024898      32.01105901      18.72893404
O        4.93821216      33.60336787      18.94144099
O        5.51588055      31.46532212      19.14391788
C        4.30043668      37.00501295      14.34465368
O        4.64546989      38.24153030      14.36981423
O        3.20388203      36.65594830      13.77511181
O        5.04584635      36.11908890      14.89977455
H        2.89731572      36.48697892      17.65745332
H        2.40871684      35.12611052      18.10601049
O        3.01424111      35.55040593      17.49810763
H        7.89854137      34.52497626      17.65492687
H        6.96743198      33.78744314      18.59352979
O        7.08053847      34.02824943      17.67404561
H        6.67100968      37.65396759      16.50453649
H        7.58999703      36.74818543      17.29631684
O        6.95608109      36.74325244      16.57912924
