20
Properties=species:S:1:pos:R:3 pbc="F F F"
Ca      31.49683808      44.09684482      13.27754248
C       29.06681402      45.35491047      13.88764104
O       29.89665462      46.07748288      13.22588361
O       27.81603233      45.64503227      13.88155875
O       29.48549090      44.33248503      14.54186338
C       33.30889557      45.69375526      14.39816484
O       32.46444953      45.17319938      15.21338780
O       33.84176719      46.83103098      14.66519973
O       33.62940588      45.07152909      13.32170605
C       31.95351254      41.21415584      15.05934034
O       31.91499769      41.38670400      16.33111065
O       31.31942068      42.01667607      14.28310274
O       32.63644091      40.24666125      14.56313569
C       30.64013262      45.63119705      10.65658657
O       31.75911802      45.23313899      11.14451797
O       30.41646624      46.88633559      10.50408643
O       29.74054722      44.77464043      10.33145170
H       32.65751962      43.11381592      11.15237392
H       31.27147292      42.87954762      10.59040902
O       31.79291107      42.77636136      11.38643560
