27
Properties=species:S:1:pos:R:3 pbc="F F F"
Ca      48.23253982       5.98431984      41.01184669
C       51.41584283       6.40566561      39.36685420
O       52.66468171       6.69373491      39.44477942
O       50.71444111       6.29547895      40.43669042
O       50.87057463       6.21835838      38.21957338
C       47.21864911       6.83232369      38.10263628
O       46.88188352       6.09842547      37.10431846
O       48.32502324       6.61310931      38.71626293
O       46.45493669       7.79322209      38.47956293
C       46.94059523       8.54184168      42.33611668
O       48.13753879       8.10945263      42.16575836
O       46.40767021       9.31723546      41.46238269
O       46.28079683       8.20818083      43.38587501
C       46.42148666       3.74821346      40.85563946
O       46.39740122       4.53196158      39.83887238
O       46.56696812       2.48353593      40.68806180
O       46.31180849       4.23037154      42.04060820
C       49.24666818       2.72007543      41.71034653
O       49.14820067       3.73066515      40.92443292
O       49.99367058       1.72666168      41.38821902
O       48.59860131       2.70316066      42.81866492
H       48.17865545       4.59811691      43.11428277
H       49.52944726       5.25104594      43.31662000
O       48.63180090       5.43815036      43.04192984
H       45.78672690       5.97696617      40.47758557
H       45.38978477       7.43648588      40.54188457
O       45.87015414       6.76089255      41.02047706
