22
Properties=species:S:1:pos:R:3 pbc="F F F"
Ca      22.07333393      42.09486768      39.85173170
C       21.98916895      44.88969394      42.20895090
O       21.99277933      43.79691287      41.53480462
O       21.38113423      45.92405828      41.75174099
O       22.58316498      44.94453435      43.34597213
C       19.25027404      41.77660759      40.38241000
O       19.51445231      42.01717898      39.14912611
O       18.04308642      41.86836110      40.81011731
O       20.19391328      41.44833979      41.18890822
C       23.71078816      40.86180524      37.75647545
O       24.37005428      40.80814344      36.65595606
O       24.33084850      40.80822840      38.87955596
O       22.43230327      40.97852191      37.73392907
H       22.25924395      43.54588020      37.67117043
H       20.78615511      43.20057625      37.61950227
O       21.49097959      43.42130388      38.22838061
H       24.62056755      43.14223144      39.64600170
H       24.87037982      41.88686933      40.45442929
O       24.41568923      42.72863928      40.48457275
H       22.92441231      40.36947026      42.26098123
H       21.79252547      41.37444211      42.23343293
O       22.70524565      41.25495425      41.97095284
