21
Properties=species:S:1:pos:R:3 pbc="F F F"
Ca      40.29938547       4.54783041      21.09379200
C       40.04128477       8.08256531      21.39985422
O       40.41055266       6.85769749      21.50937826
O       39.65335436       8.53696371      20.26332989
O       40.04896168       8.84990547      22.42931314
C       38.10283660       3.70434731      19.40465180
O       38.92978293       2.78045787      19.73818082
O       37.92387043       4.71493844      20.17622829
O       37.45459764       3.61747362      18.29971161
C       41.02056181       3.50129226      18.75644254
O       41.51094406       2.82402048      19.73085611
O       40.87183368       4.77172973      18.86834409
O       40.67814322       2.90801036      17.67043169
C       42.96960964       4.87583334      22.82735018
O       44.24756534       4.98975346      22.87582415
O       42.23676666       5.50042300      23.67665822
O       42.42516623       4.12678031      21.93796871
C       38.75941833       3.52919391      23.81270962
O       39.95960264       3.54745418      23.35676878
O       38.51061880       3.99195048      24.98429519
O       37.80810473       3.04778204      23.09723614
