21
Properties=species:S:1:pos:R:3 pbc="F F F"
Ca       8.41004803       4.49447565      28.32501400
C        5.92793547       2.55012970      28.40895744
O        4.78389647       3.13197999      28.44473792
O        6.82169267       2.83687106      29.28510396
O        6.18240399       1.69028798      27.48995081
C        8.89439549       6.19256294      30.49240591
O        8.61059675       4.96160805      30.72232251
O        9.67945182       6.82914192      31.28430735
O        8.39340146       6.78684376      29.47040311
C        9.28117778       3.44362084      25.85724769
O        8.85073977       2.56063650      26.68411827
O        9.26760215       4.68625663      26.18024181
O        9.71601568       3.08487546      24.70361401
C        5.90005885       4.80162490      25.93787870
O        6.02539378       3.67756403      25.33005889
O        5.30921934       5.78286678      25.35758601
O        6.35637867       4.94126820      27.12990992
C       10.85808400       3.68312463      29.58736378
O       10.84936943       4.82488591      29.00002988
O       11.86039390       3.34263472      30.31406651
O        9.85997949       2.88609749      29.45625163
