26
Properties=species:S:1:pos:R:3 pbc="F F F"
Ca       4.70159781      10.36264226      27.00854899
C        1.87394818       8.49454282      27.48737543
O        3.09656563       8.56973147      27.10239532
O        1.48742893       9.14095332      28.52728539
O        1.03531099       7.78184349      26.82601039
C        1.99897768      12.87840179      26.18846211
O        2.88707828      11.95119613      26.20339478
O        1.78746579      13.58181694      27.24161255
O        1.32238898      13.10219231      25.12037900
C        4.17865273      11.13062517      30.28090462
O        3.53643346      11.00175620      29.17654782
O        3.89609163      10.37497406      31.27980728
O        5.11222421      12.00631551      30.38222368
C        6.78534691      12.72280486      26.52613626
O        7.40389505      13.83325811      26.34459906
O        5.65290204      12.71019840      27.13117618
O        7.30478524      11.62361680      26.11305467
H        7.03113185      11.31045125      27.90494262
H        6.47091167      11.14378908      29.30146411
O        6.85715276      10.65152296      28.57708596
H        5.55354545       7.82353147      25.70413116
H        6.79527241       8.67683463      25.85206031
O        5.91581668       8.55184244      26.20866479
H        5.30680707      10.44767961      24.16348012
H        5.94552848      11.59653595      24.91451891
O        5.20580882      10.98985175      24.94583601
