22
Properties=species:S:1:pos:R:3 pbc="F F F"
Ca      30.22473939      22.41943704      29.99201524
C       32.76887906      24.46043009      29.74742831
O       32.46053965      23.29805409      30.19738855
O       33.97451147      24.70822153      29.38177064
O       31.86892693      25.37123744      29.65165914
C       30.61913252      21.71908187      33.52921357
O       31.14664543      22.40004617      34.48140826
O       30.64593596      22.16899003      32.32691534
O       30.05598728      20.59293922      33.78086176
C       27.85369817      20.80465892      29.93901303
O       26.70512033      20.24496942      30.06617559
O       28.77945096      20.57285562      30.79802629
O       28.07650649      21.59619333      28.95286657
H       30.41897924      20.09747190      28.65079171
H       31.82604337      20.61360110      28.86451203
O       30.98014327      20.85553238      28.48747877
H       29.47419144      24.79591023      31.61009881
H       28.36979122      24.36642612      30.66789993
O       29.22551981      24.09882394      31.00308563
H       31.43873713      23.78731191      27.58512386
H       30.22740086      24.61836844      27.95105374
O       30.61291680      23.75003268      28.06768257
