24
Properties=species:S:1:pos:R:3 pbc="F F F"
Ca      14.98207340       7.68035105      24.00511271
C       17.57407841       6.74951173      21.96679643
O       16.72532147       6.41514323      22.87037971
O       18.45147314       5.90242471      21.56520536
O       17.54513969       7.93081597      21.46446566
C       11.65371721       9.08524225      23.70166592
O       12.93591519       9.06196654      23.76556454
O       11.06825836       9.79845913      22.80879621
O       10.95700290       8.39421765      24.52975450
C       17.27895097       9.34135087      24.16226732
O       18.48554697       9.67933269      23.88200209
O       16.29574764       9.94608630      23.59989680
O       17.05558152       8.39756751      25.00371445
C       14.87672137       5.45396436      25.67829102
O       16.05614272       5.60543298      25.19385682
O       14.14926806       6.48161176      25.93009706
O       14.42011020       4.27443911      25.89938027
C       12.75109293       6.01767062      22.66153468
O       12.78690179       6.70216846      21.57579098
O       11.62373760       5.74977332      23.21467091
O       13.84327117       5.61051792      23.20008080
H       14.10204373       7.96913319      21.25630051
H       15.46299043       7.30692113      21.22173933
O       15.00712482       8.08360602      21.54605231
