26
Properties=species:S:1:pos:R:3 pbc="F F F"
Ca      18.44153432      27.10592981      43.28479483
C       21.91492445      26.69764848      43.98048926
O       22.62700985      27.59710293      44.55718384
O       22.47745372      25.80485365      43.24895703
O       20.64044764      26.69018008      44.13641894
C       19.94446286      25.51495304      41.30771094
O       20.03533139      26.76467392      41.02735594
O       19.12530297      25.11808390      42.21332135
O       20.68149118      24.66342155      40.69099268
C       17.34028349      24.10849223      45.11856507
O       18.07525261      25.15249856      45.25470271
O       16.15605347      24.08796448      45.61438510
O       17.79399098      23.08055809      44.49714178
C       18.14433632      29.67218964      45.39755128
O       17.12849900      29.90582082      46.14731453
O       18.55566906      28.46733546      45.23086262
O       18.74356113      30.64253811      44.80762916
H       19.32045520      29.45159554      43.10315711
H       18.07332391      29.69587846      42.28042715
O       18.73431497      29.03114609      42.47395623
H       15.75543411      27.07234986      44.45211644
H       16.58852605      25.80834588      44.46423115
O       16.56711676      26.69744104      44.11028268
H       17.74035011      27.81308530      40.70729698
H       17.61437339      26.30876029      40.59314237
O       17.40651976      27.04420094      41.16947206
