26
Properties=species:S:1:pos:R:3 pbc="F F F"
Ca      20.54218869      28.99329394      40.85624268
C       19.92895418      32.19201064      41.37809230
O       20.93282647      32.84754648      40.91855986
O       19.43920475      32.48995543      42.52701843
O       19.40690378      31.24689648      40.68319702
C       18.81076765      27.66568158      38.76788091
O       19.83433589      27.62733945      37.99361096
O       18.57360161      28.71623763      39.46698051
O       18.02436545      26.65346767      38.84305124
C       19.94446286      25.51495304      41.30771094
O       20.03533139      26.76467392      41.02735594
O       19.12530297      25.11808390      42.21332135
O       20.68149118      24.66342155      40.69099268
C       21.97181894      30.85812246      42.53375617
O       21.08936004      30.10182594      43.07959108
O       22.46210409      31.84818809      43.18800729
O       22.36310638      30.62507676      41.33324033
H       22.41355940      28.60000189      42.91192282
H       22.34767314      27.21990687      42.29314022
O       22.31726645      28.15076167      42.07219513
H       19.32045520      29.45159554      43.10315711
H       18.07332391      29.69587846      42.28042715
O       18.73431497      29.03114609      42.47395623
H       21.84393517      28.18384848      38.57242794
H       22.21177513      29.64967065      38.66161486
O       22.14374228      28.85295088      39.18777236
