22
Properties=species:S:1:pos:R:3 pbc="F F F"
Ca      29.02112435      42.44705079      15.81524457
C       29.06681402      45.35491047      13.88764104
O       29.89665462      46.07748288      13.22588361
O       27.81603233      45.64503227      13.88155875
O       29.48549090      44.33248503      14.54186338
C       27.62412997      40.50066309      13.99121133
O       26.77903072      40.95630983      14.84376608
O       28.78382397      41.04145798      13.88487598
O       27.31404791      39.49635997      13.25372863
C       31.95351254      41.21415584      15.05934034
O       31.91499769      41.38670400      16.33111065
O       31.31942068      42.01667607      14.28310274
O       32.63644091      40.24666125      14.56313569
H       27.92283263      43.61676844      18.15169761
H       28.40909274      42.23438941      18.53179564
O       28.51920322      42.92131766      17.87434850
H       28.99893580      40.16481399      17.42345295
H       30.10090919      39.79437633      16.45374898
O       29.64807150      40.54749821      16.83319253
H       26.34492301      43.26478182      16.33529394
H       26.51281853      42.74992043      14.92156694
O       26.88817546      43.36324774      15.55336484
