26
Properties=species:S:1:pos:R:3 pbc="F F F"
Ca      25.45830813      46.65308404      33.21937414
C       22.70642632      47.32822102      32.51503049
O       23.11152091      48.52916009      32.72069528
O       21.91111812      47.07729210      31.53872441
O       23.09054543      46.37949308      33.29028638
C       24.71899721      43.64348126      32.84463274
O       25.61987401      42.96650420      33.46008487
O       25.05898683      44.61007594      32.07083658
O       23.47763702      43.36098004      33.01159486
C       25.42993589      45.86218161      36.35643631
O       26.46500895      45.26758516      36.82944197
O       25.05969951      46.99120401      36.84314891
O       24.76985942      45.33168004      35.39128210
C       24.71334239      48.59755315      30.52382883
O       23.83537290      48.59222898      29.58692184
O       25.00960947      47.50634952      31.13223161
O       25.29943135      49.69296469      30.84821542
H       27.93601772      48.12460333      32.59451110
H       26.88521857      48.69923103      31.66848768
O       27.03125734      48.43660342      32.57729532
H       28.13179039      45.92142019      33.84254209
H       27.37351343      45.80835589      35.14796449
O       27.27167790      46.07381855      34.23396785
H       25.14076242      48.68689725      35.38374244
H       24.02205690      48.57129866      34.37031750
O       24.97604559      48.56664524      34.44852071
