21
Properties=species:S:1:pos:R:3 pbc="F F F"
Ca      30.40675276      16.34594868       2.47366720
C       32.42045694      15.07747850       4.79454895
O       33.17718072      14.04503847       4.89499954
O       32.81402130      16.20923644       5.25594378
O       31.27492065      14.98062806       4.22269242
C       29.42304858      14.46307190       0.28849801
O       28.85946710      13.47585323      -0.30851922
O       30.05889282      14.27058623       1.38727275
O       29.35877940      15.64113653      -0.21814492
C       32.76083263      16.59192814       0.88709756
O       33.62251309      16.25353204      -0.00264993
O       33.03859504      16.45792298       2.13351097
O       31.62599578      17.07538830       0.53063256
C       27.97243167      16.32384851       3.70366318
O       29.01133035      16.23889473       4.45341188
O       28.02024962      17.00272120       2.61485866
O       26.88516410      15.73147791       4.04365948
C       30.25017200      18.98101770       3.78179740
O       31.24282313      18.16704173       3.72563772
O       29.77577059      19.33775034       4.92142599
O       29.70785702      19.40832267       2.69811510
