24
Properties=species:S:1:pos:R:3 pbc="F F F"
Ca      24.97177433      43.81956686      24.47886108
C       22.48468635      45.77803524      25.00409700
O       23.22007631      46.81999885      24.85519859
O       21.23333374      45.82964079      24.72105946
O       22.99898234      44.68676569      25.44374200
C       23.15534736      42.02281290      22.32870188
O       24.14266054      42.02242458      23.14959544
O       23.35208662      42.28872800      21.08804210
O       21.97290031      41.74739558      22.74657480
C       28.37133460      43.81143604      24.25363395
O       27.46543946      42.91658027      24.08857912
O       29.11301781      43.78848342      25.30150558
O       28.52766608      44.73610400      23.37659037
C       25.64925221      42.25681059      26.46169896
O       26.40243705      41.21757156      26.49845670
O       26.14791320      43.41921119      26.68264779
O       24.39530241      42.13247585      26.21510797
C       24.28442032      45.41441556      22.25746820
O       25.36234017      44.71803350      22.29991173
O       24.34799475      46.68677569      22.09711998
O       23.14306795      44.83883722      22.37863609
H       25.28223133      46.17520937      25.50573285
H       26.75438298      45.83982978      25.39534624
O       25.89170392      45.57501950      25.07614224
