25
Properties=species:S:1:pos:R:3 pbc="F F F"
Ca       0.88147772      37.94810911      25.44223206
C        0.19265850      34.76813580      26.73325757
O       -0.02931487      36.03278480      26.74036760
O        0.83847326      34.23513813      25.75986329
O       -0.22972391      34.03673671      27.70037073
C        2.61148070      35.79079584      22.89792403
O        2.90443699      34.56000160      23.11696362
O        3.17950655      36.42463718      21.93654582
O        1.75982782      36.39131533      23.64807049
C        3.74028644      37.12593621      25.18181684
O        4.56858925      36.26861018      24.70478156
O        3.66050356      38.29830303      24.66427816
O        2.98285372      36.80674538      26.16825934
C        1.55103876      39.39208918      27.69630192
O        1.97019916      39.70957553      28.86769640
O        2.34666690      39.45612949      26.69055186
O        0.33282772      39.02260655      27.52866354
C        1.28379050      40.40694644      22.86313684
O        0.33433508      40.25689275      22.01185855
O        2.05638305      41.42984787      22.78944764
O        1.46835375      39.52779048      23.78056678
C       -1.49152004      38.09099488      23.84603801
O       -1.41170730      38.64320437      25.00247676
O       -2.56117714      38.21676746      23.14698798
O       -0.50167569      37.41301280      23.38864928
