27
Properties=species:S:1:pos:R:3 pbc="F F F"
Ca       4.32729788      12.17569736      16.33677182
C        7.21757615      12.07850689      15.75877087
O        8.45525376      12.28681925      15.48782181
O        6.32796578      12.21599794      14.84316025
O        6.86973099      11.73072120      16.94481558
C        1.66272313      14.08766607      16.00868238
O        1.85757082      15.24297873      15.48337832
O        0.77224525      13.30219427      15.52007197
O        2.34999443      13.72263962      17.02999076
C        5.68040445      14.92076223      16.86604330
O        5.10859498      15.34638024      17.93400415
O        4.98436230      14.69778847      15.81036072
O        6.94764790      14.71429374      16.85496848
C        3.45219466      10.13138272      18.62501351
O        2.86249100      10.60666510      17.58818553
O        2.76436675       9.57959015      19.55832681
O        4.72972622      10.20789293      18.72852818
C        3.31370937      12.51054353      12.94778854
O        2.09996854      12.41904189      12.53899270
O        3.56880711      12.51354242      14.20618809
O        4.27256507      12.59635449      12.09815010
H        3.74225332      13.60320740      18.33125197
H        5.24861688      13.63700176      18.47829590
O        4.50576401      13.03501437      18.43342353
H        5.60023242      10.37050202      14.80896685
H        6.09008414      10.26020464      16.23717376
O        5.37218007       9.99821036      15.66080187
