20
Properties=species:S:1:pos:R:3 pbc="F F F"
Ca      32.47663251      49.07258075      37.56963798
C       32.67357842      49.63829992      34.21795457
O       33.38280718      50.43772833      33.50622106
O       32.83325481      49.59924986      35.49138861
O       31.81046435      48.87202124      33.65536508
C       31.14162379      47.20553276      39.45496130
O       30.79199050      46.21672418      40.19568277
O       31.18087733      47.06933103      38.17880983
O       31.45837674      48.32857030      39.99078616
C       34.65961120      47.65623051      37.20100594
O       33.53825948      47.22993760      36.74329599
O       35.50061391      46.83057721      37.71057905
O       34.94067144      48.90795233      37.14760722
C       33.02659987      50.86470843      39.60072896
O       33.78667844      49.83268865      39.52411067
O       32.02699869      50.98638589      38.80408179
O       33.27183259      51.77970713      40.46750038
H       29.71547082      48.89201731      36.94866930
H       30.00161470      48.77843391      38.43093635
O       30.13455329      49.35183830      37.67610780
