24
Properties=species:S:1:pos:R:3 pbc="F F F"
Ca      23.11388106      33.51348608      41.94220607
C       19.92895418      32.19201064      41.37809230
O       20.93282647      32.84754648      40.91855986
O       19.43920475      32.48995543      42.52701843
O       19.40690378      31.24689648      40.68319702
C       25.68652743      34.42283750      43.65922036
O       24.51903455      34.83654835      43.32089845
O       25.97329730      34.25375296      44.89931360
O       26.57105189      34.18964454      42.75816806
C       21.97181894      30.85812246      42.53375617
O       21.08936004      30.10182594      43.07959108
O       22.46210409      31.84818809      43.18800729
O       22.36310638      30.62507676      41.33324033
C       24.89106443      30.89300192      43.31363453
O       25.12830364      31.03279757      44.56775849
O       25.09027776      31.87385991      42.50934304
O       24.46640053      29.76855895      42.86203574
C       24.01676304      34.33531561      39.30301402
O       22.94905665      34.42211029      38.59511150
O       24.79348024      35.35097788      39.42047318
O       24.31418662      33.22917368      39.88322554
H       20.73289922      34.64810823      41.03476802
H       21.10369357      35.68411486      42.07452616
O       21.47676743      35.14237966      41.37913373
