27
Properties=species:S:1:pos:R:3 pbc="F F F"
Ca       8.69640153      16.47666893       6.46240369
C       10.81809019      19.10013794       6.02611733
O       10.19523297      19.63408261       5.03839160
O       12.03565572      19.42708519       6.26961375
O       10.21997270      18.24726301       6.77679095
C       10.08589121      17.40065758       3.44343323
O       11.32501176      17.71142000       3.57252369
O        9.37840330      17.95104499       2.52409004
O        9.55748271      16.53019724       4.22557170
C        6.30927947      14.99002374       4.60555196
O        5.96556415      16.06333368       3.99030872
O        5.90710807      13.84808569       4.17789052
O        7.04531803      15.05949558       5.65535169
C        6.43967421      18.46965055       7.57651866
O        6.56493356      19.74730150       7.55263459
O        7.36593568      17.74323934       8.08937315
O        5.38753677      17.91849470       7.08878228
C       10.57525452      14.73389047       8.99003999
O       10.43391224      13.47958204       8.75468684
O       11.52394317      15.14090249       9.75357677
O        9.77451450      15.58202513       8.45325252
H        7.36492283      19.06779430       6.04443948
H        8.77628139      18.93235861       5.51376129
O        7.92190960      18.50076354       5.51107951
H       10.06305331      13.98097690       6.85270455
H        8.77081953      13.87814660       6.07075001
O        9.62290001      14.31425546       6.07076976
