22
Properties=species:S:1:pos:R:3 pbc="F F F"
Ca       2.05772237      52.78741500       7.47682128
C        1.12472527      55.05420289       5.29405813
O        0.34536063      54.45966307       4.46473950
O        1.07650452      54.76134405       6.54328375
O        1.95979574      55.93382022       4.87264757
C        4.34851661      54.91762007       7.95827001
O        5.07080515      55.83987527       8.48400690
O        3.18558476      54.66097214       8.43824460
O        4.78983207      54.25089786       6.95359294
C        1.94759897      50.02862998       8.19610597
O        1.95994591      50.28457886       6.93793181
O        2.23801856      50.95027787       9.04161533
O        1.65390972      48.84859894       8.60834120
H        4.75074490      52.11985196       7.32664322
H        5.14481241      52.63172393       8.69580102
O        4.48033417      52.11085257       8.24480924
H       -0.60631837      52.18631599       8.63512970
H       -0.31374407      53.62170149       9.01718197
O       -0.05397368      52.93338422       8.40483363
H        3.26877129      53.31375170       4.94336602
H        1.84196790      53.16486371       4.45967228
O        2.43233147      52.90568309       5.16715235
