20
Properties=species:S:1:pos:R:3 pbc="F F F"
Ca      33.56347534      42.80442161      38.13638762
C       33.65417773      39.44680094      38.59794974
O       33.65368879      40.58868726      39.18510483
O       33.88636212      39.37324347      37.33726151
O       33.42395064      38.37833053      39.27176100
C       34.32251677      43.76171221      40.77456448
O       34.84978871      44.25898626      39.71467709
O       33.26482844      43.03901360      40.68704305
O       34.84620009      43.99678897      41.92310810
C       35.60530392      42.59631013      36.04311662
O       36.38542334      42.71603076      37.05590299
O       35.80569520      43.30469390      34.99112255
O       34.61840140      41.77606062      36.08635836
C       30.85144699      43.09049262      36.79933236
O       31.45485279      43.80167940      37.68181126
O       29.70504222      43.45805163      36.35288977
O       31.39733310      42.01511457      36.35862362
H       34.07739054      45.36939188      37.18454405
H       34.23651499      44.61426355      35.88210180
O       34.32373263      44.51502378      36.83014026
