28
Properties=species:S:1:pos:R:3 pbc="F F F"
Ca      39.50285398      53.42279311      42.94190707
C       40.62230618      55.34797791      45.27511316
O       41.72176418      55.96911836      45.50755914
O       39.50229816      55.87652858      45.61403875
O       40.64234590      54.20199996      44.69633238
C       37.02027350      53.59546740      40.23375114
O       35.99108758      54.31659239      39.97029127
O       37.78626817      53.19819467      39.28291859
O       37.28346474      53.27161515      41.44804356
C       37.00562403      52.87843161      44.52636571
O       37.48937072      54.05970323      44.38764795
O       35.80273879      52.62933335      44.15263694
O       37.72890835      51.94325666      45.02732890
C       40.35765634      52.24758206      39.91272593
O       40.22787697      50.97607701      39.78989134
O       40.43904660      52.98856141      38.86726841
O       40.39395706      52.77931569      41.08088588
C       40.48398813      55.98244375      42.42366828
O       40.72302364      57.16313360      42.86806619
O       41.43965120      55.13189066      42.31447334
O       39.28928955      55.65230699      42.08846531
C       41.03656948      50.57647795      43.10727401
O       42.06922522      50.91510786      42.42350616
O       40.45089002      51.43979693      43.85581402
O       40.59570612      49.37188066      43.05039890
H       39.02625478      51.46537474      41.62759309
H       37.58394431      51.62687604      42.05835172
O       38.44596913      51.36570546      42.38228905
