28
Properties=species:S:1:pos:R:3 pbc="F F F"
Ca      22.71091811      13.34748427      21.21196767
C       23.68876275      15.06337284      23.87185406
O       24.56643432      14.52670654      24.64018861
O       23.87734412      16.24648217      23.40996070
O       22.61787358      14.42085201      23.57349274
C       25.78748141      14.48177965      20.87985740
O       25.81157148      14.08495851      19.65895212
O       26.28561502      15.62275940      21.19399941
O       25.27638839      13.73228063      21.78853350
C       19.55935338      14.30053020      22.19148548
O       20.36633081      13.75076579      21.35769757
O       18.60916438      15.05160598      21.76524415
O       19.69487749      14.08909443      23.45068517
C       22.55727088      14.90789281      18.08501795
O       23.13034914      14.14388502      17.22680600
O       22.50251227      16.17446515      17.88142347
O       22.04226779      14.40576780      19.14864226
C       22.76551260      11.11446285      19.07414656
O       23.86946258      11.75990393      18.95857392
O       21.69627211      11.72987980      19.43001652
O       22.72812750       9.85608442      18.82167315
C       23.36498214      10.21227681      21.72017783
O       23.92390174       9.16291037      21.23530854
O       22.16848870      10.14736932      22.18153478
O       24.00238110      11.32665998      21.74325233
H       22.78666845      16.02509930      20.47017163
H       23.83300611      15.95235608      21.56185890
O       23.56192152      15.53506104      20.74417312
