24
Properties=species:S:1:pos:R:3 pbc="F F F"
Ca      22.24971250      41.18511612      33.07333900
C       22.71755249      41.71995139      29.83876324
O       23.18197771      42.87347924      30.15866666
O       22.21365691      40.95799457      30.74107514
O       22.74710609      41.33287803      28.61485291
C       22.92915813      38.43249040      34.43163481
O       24.07248503      38.30509953      33.86134349
O       22.59035148      39.55905420      34.94614525
O       22.12982768      37.42986517      34.49849698
C       21.12022192      42.78694757      35.33017237
O       20.79432398      42.72724458      34.08965555
O       20.45840983      42.11426479      36.20089533
O       22.10014496      43.52891503      35.70150924
C       24.71899721      43.64348126      32.84463274
O       25.61987401      42.96650420      33.46008487
O       25.05898683      44.61007594      32.07083658
O       23.47763702      43.36098004      33.01159486
C       19.53330734      38.85877273      33.93438928
O       19.06114634      37.78487025      33.40971234
O       19.04275022      39.30437022      35.03542626
O       20.54834058      39.44027406      33.40236619
H       24.27245190      40.15078520      34.42977995
H       25.01715352      41.00835726      33.42883798
O       24.19601070      40.95602101      33.91793630
