22
Properties=species:S:1:pos:R:3 pbc="F F F"
Ca      11.62143319       7.32912189      14.99941822
C       12.45013755       9.26392820      12.44788714
O       13.57338687       8.78513668      12.84503527
O       12.39774430       9.97925468      11.38288960
O       11.37745833       9.01759688      13.10920186
C       11.34302268       6.53376130      17.81929450
O       10.86345037       5.85831815      18.80033525
O       12.15635260       5.97926680      16.99486486
O       11.01423553       7.76549380      17.66636299
C        9.13144989       5.37068179      14.92223625
O       10.35862173       5.09149965      15.17671932
O        8.82598778       5.99809027      13.84441124
O        8.21096922       5.03284405      15.75123333
H       13.92589970       6.40544997      16.01240599
H       13.79870856       5.56688136      14.75840439
O       13.81065223       6.47369915      15.06462301
H       12.88057758       9.60860801      16.54002317
H       12.64871518       9.97528845      15.08961617
O       12.49494370       9.27908495      15.72827631
H       11.01366611       5.39211861      12.99732185
H       11.98121038       6.03207299      12.02458773
O       11.54967799       6.17439381      12.86705814
