24
Properties=species:S:1:pos:R:3 pbc="F F F"
Ca      11.23384623       3.00710536      15.57690685
C       13.22799800       1.26472088      17.65760178
O       13.18289196       1.05664569      18.92382630
O       13.03224580       2.44588822      17.19372768
O       13.45912712       0.28980018      16.85463021
C        9.63286850       2.73964870      18.69844882
O       10.44019691       2.62220642      19.68986287
O        8.44025382       3.17509889      18.88935184
O       10.02276952       2.43353123      17.51381751
C        8.06135141       2.95168379      13.94492236
O        8.45768920       3.29113420      12.77175598
O        6.85344545       3.19096474      14.30869597
O        8.87674630       2.38523916      14.75910842
C       12.91553455       3.26748154      13.37913812
O       13.69819425       3.39756056      12.36959464
O       13.34047891       3.53866200      14.56004362
O       11.71067011       2.85768618      13.20877328
C        9.13144989       5.37068179      14.92223625
O       10.35862173       5.09149965      15.17671932
O        8.82598778       5.99809027      13.84441124
O        8.21096922       5.03284405      15.75123333
H       11.29849885      -0.08540095      15.18629080
H       12.23049507       0.56844500      14.18841121
O       11.49639854       0.75527787      14.77358448
