20
Properties=species:S:1:pos:R:3 pbc="F F F"
Ca      40.02113428      51.35196090      27.31798078
C       42.14041053      50.86118017      25.83269300
O       43.24626791      51.48733312      25.64920027
O       41.07262616      51.25666912      25.23932751
O       42.09970695      49.84710812      26.61924178
C       38.20150831      54.06105849      26.42411277
O       37.43257112      54.99377444      26.85704769
O       38.13805458      53.69555259      25.19487105
O       39.04235301      53.50225322      27.21744319
C       38.20075644      50.29515160      29.86457625
O       37.16725419      49.72361036      29.36072266
O       38.75713422      49.80658450      30.91357595
O       38.67514241      51.35784945      29.32209533
C       38.47547937      49.01375745      27.37650745
O       39.60272660      48.94121567      27.98700576
O       38.11428387      50.11513204      26.82408650
O       37.70413637      47.98837919      27.32868945
H       42.65019055      52.44990531      27.17176037
H       42.07562346      52.44405429      28.57237938
O       41.82435833      52.51435660      27.65142597
