23
Properties=species:S:1:pos:R:3 pbc="F F F"
Ca      26.37139380      24.66989660      13.02721500
C       27.32073452      23.09825906      10.27585326
O       28.06495997      24.07762726       9.90761100
O       26.31468570      23.31029250      11.04497241
O       27.58998092      21.90512841       9.88523300
C       29.55918837      24.14167390      12.42443358
O       30.58421930      24.67634324      11.86577601
O       29.53747622      22.87794209      12.65063863
O       28.56080880      24.87252789      12.76757862
C       26.25845385      22.46400405      15.75312608
O       27.02918528      21.61903108      16.33677795
O       26.47571319      22.79383593      14.53137929
O       25.27286102      22.98218400      16.39246326
C       23.31162243      25.20736992      14.54659669
O       22.13891841      25.23494931      14.02442919
O       24.30242282      24.74196766      13.87550135
O       23.49364311      25.64577740      15.73962695
H       28.43357659      26.04581113      14.24400550
H       27.55186026      27.17608650      13.75723148
O       27.61277290      26.50066012      14.43274772
H       26.36234194      27.18154331      11.58670609
H       24.94851243      26.88251858      12.03785906
O       25.85530768      26.59751869      12.15066275
