25
Properties=species:S:1:pos:R:3 pbc="F F F"
Ca      47.03066129      18.84547253      29.81499603
C       43.54335226      18.30032476      30.28780064
O       44.81337522      18.47591135      30.21804791
O       42.75804273      19.31374186      30.35800838
O       43.05817270      17.11155245      30.27911566
C       49.87986376      20.01090451      30.66099766
O       49.42689350      18.82099448      30.49491038
O       49.42189368      20.97719965      29.95023038
O       50.78333923      20.23632361      31.54506298
C       47.61550118      19.79627754      32.98431401
O       48.63431214      19.09524655      33.32961541
O       46.75625751      20.15824616      33.86711210
O       47.45588377      20.13525935      31.75619875
C       48.52903250      15.79557765      29.64682372
O       49.70632248      15.66028785      30.14113114
O       47.68470308      16.58482449      30.20615581
O       48.19333313      15.13529169      28.59802270
C       44.90589766      18.19880858      27.64515867
O       46.18293856      18.19113919      27.77843640
O       44.28318404      19.31106706      27.49100330
O       44.25044563      17.09517288      27.67718529
C       47.12436022      21.82607632      28.04124853
O       46.47143190      20.89820691      28.64241343
O       47.14350094      23.01496578      28.52584315
O       47.76656421      21.56268964      26.96103651
