24
Properties=species:S:1:pos:R:3 pbc="F F F"
Ca       8.18187423      46.37703058      28.09150340
C        7.93598307      44.62374282      30.25328925
O        8.70237969      45.64605585      30.38043914
O        7.44326328      44.32965609      29.10464035
O        7.66821099      43.89129048      31.27332158
C        5.57746225      47.83683187      27.65312918
O        6.72840029      48.05508115      27.12742241
O        4.98445000      46.71497611      27.45708732
O        5.01424251      48.74491248      28.36504873
C        7.01686202      47.50375005      30.54496574
O        7.17029993      47.71719335      31.80177022
O        7.81934067      48.04237903      29.69964563
O        6.05366872      46.76146060      30.13274790
C       11.17208341      47.15596411      27.08501339
O       11.89614635      47.81869763      26.25727443
O       10.02392079      47.60877536      27.43906742
O       11.58975890      46.03324391      27.54731429
C        7.81057776      46.02791295      24.64746154
O        8.40132488      45.34520795      23.73444768
O        7.27130713      47.15651869      24.35746271
O        7.77002613      45.58794173      25.85305055
H        9.82021426      44.43581799      28.66072040
H       10.28520840      44.76583846      27.25830744
O        9.50081115      44.72269457      27.80519986
