20
Properties=species:S:1:pos:R:3 pbc="F F F"
Ca       6.19149683      21.85324969      38.15066434
C        5.17272930      21.61373544      35.58808090
O        6.43143137      21.79504414      35.76542653
O        4.33095188      22.07932197      36.43854856
O        4.75640658      20.95700735      34.56629865
C        6.29165649      25.19745908      38.73742717
O        6.50939280      24.25463917      37.89342666
O        5.29921621      25.11684519      39.54811764
O        7.06017221      26.22573395      38.76368893
C        4.61930358      22.34148385      40.40442584
O        3.83347572      23.08685641      41.09402526
O        4.13301643      21.45324857      39.61498547
O        5.89138177      22.48571791      40.50274459
C        9.49167192      21.73973885      37.50333564
O       10.27846890      20.72509430      37.49321672
O        9.25190077      22.37708103      36.41477675
O        8.93708972      22.11116868      38.60021033
H        7.60388041      19.65075858      38.76836700
H        6.71935075      19.46732012      39.98321373
O        6.99653089      20.12006134      39.34030488
