24
Properties=species:S:1:pos:R:3 pbc="F F F"
Ca      48.85312239      45.43639553      15.71647038
C       49.09645308      43.15322191      13.13776147
O       48.17914331      42.42309943      13.66132367
O       49.17444639      44.39927917      13.43761464
O       49.93638893      42.63706272      12.31511918
C       47.32468881      47.81106591      14.13017814
O       47.57087405      48.95533499      14.65811176
O       46.13334775      47.52379866      13.74695131
O       48.27174509      46.95770132      13.97675482
C       49.32140856      41.91560149      16.22613815
O       50.53667700      41.66169879      15.89855318
O       48.92642059      43.13257855      16.33387465
O       48.50435472      40.95257211      16.45776986
C       50.73912230      47.95935435      15.98109714
O       50.90583152      47.64055356      14.74852622
O       49.70412538      47.54388475      16.61735408
O       51.60467133      48.69807960      16.57588035
C       51.07146632      45.20237035      17.59998249
O       52.12897299      45.37381763      18.30775454
O       49.91394440      45.24784550      18.15381522
O       51.17094076      44.99743310      16.33635229
H       46.44520259      45.28909926      17.30605197
H       47.45746535      44.49852682      18.10743482
O       47.38251589      45.22569798      17.48950485
