20
Properties=species:S:1:pos:R:3 pbc="F F F"
Ca      25.87644574       9.32105365      41.77726668
C       28.03957141      11.10320559      40.82647361
O       28.27203899      10.13707806      41.63962405
O       28.14594481      12.31867275      41.22645050
O       27.70413833      10.85388329      39.61239774
C       26.63297906       8.05062016      44.16821864
O       25.75745829       7.40646984      43.48470333
O       26.87075769       9.28494852      43.90639164
O       27.27834630       7.45750733      45.10650228
C       24.82011379      12.21844523      42.06641541
O       25.51893115      13.12608201      42.64650801
O       23.73619027      11.79699421      42.61060780
O       25.19937634      11.74024299      40.93675174
C       25.61419406       7.90058559      39.49321963
O       26.76628443       8.03422319      40.04417989
O       24.61968702       8.59941812      39.90711463
O       25.45580484       7.06557256      38.53068568
H       23.53473475      10.11109418      42.61586214
H       22.99424818       9.06110621      41.66860577
O       23.59242586       9.17884386      42.40654314
