27
Properties=species:S:1:pos:R:3 pbc="F F F"
Ca      39.79956692       4.69034299      10.76749733
C       40.56929559       3.85089237       7.74626729
O       41.06528362       5.01288589       7.51730596
O       40.58222951       3.37060764       8.93698793
O       40.04914696       3.17447461       6.78680870
C       39.65367613       7.78177168      10.85036184
O       40.51164286       8.23401057      10.00891663
O       38.40992125       8.07182728      10.71770361
O       40.03779339       7.02915274      11.81714803
C       42.76562158       5.40609160      10.74840030
O       42.71943600       4.14153983      10.96623329
O       41.87717477       5.96269964      10.00710183
O       43.69223913       6.11619451      11.28300472
C       38.96396540       1.15588202      10.87665049
O       39.79872123       0.27898429      10.44899323
O       39.36641994       2.34271911      11.15612428
O       37.72914689       0.84239061      11.03666265
C       37.01529546       4.89358136      10.61293631
O       37.64456523       4.97147118      11.72946634
O       36.39278451       5.91853322      10.15396827
O       37.00686388       3.79016851       9.95635712
H       38.90452136       4.62804291      13.21479041
H       39.46001416       3.25260102      12.91232957
O       39.69165886       4.18130426      12.90322818
H       39.07113300       5.45583797       8.20771975
H       38.66369280       6.62776201       9.07517679
O       38.77833175       5.67759438       9.09164474
