24
Properties=species:S:1:pos:R:3 pbc="F F F"
Ca       4.02989764      37.89211883      36.86273021
C        1.33342728      39.89147994      35.71539539
O        1.00741477      39.99278347      34.47761192
O        1.16646626      40.88860397      36.50692694
O        1.83789911      38.79719836      36.15891597
C        2.76900660      39.08784939      39.52076717
O        3.81809198      38.69794156      40.15009031
O        2.24122821      40.22562937      39.79565338
O        2.25122344      38.34263876      38.61235240
C        1.07688262      36.25063131      36.20848439
O        2.30355882      36.24510327      35.82915167
O        0.78830012      36.10024661      37.45056445
O        0.13865370      36.40347039      35.34533604
C        4.35732589      38.96972557      34.30637129
O        3.53687230      39.21504932      33.34964425
O        4.41242306      39.75369413      35.32175862
O        5.12196964      37.93987743      34.24817897
C        5.18400560      35.43857710      37.49514633
O        5.40393817      34.22786148      37.86182865
O        5.21829269      36.38743764      38.35952260
O        4.94087933      35.70182915      36.26216369
H        5.33468038      38.79805197      38.97327041
H        5.68056769      40.00880792      38.13283767
O        5.30876555      39.12864339      38.07534524
