24
Properties=species:S:1:pos:R:3 pbc="F F F"
Ca       4.03693735      53.32992869      25.79142121
C        1.70169281      51.26432724      24.59814859
O        2.77193218      51.34294950      25.30317368
O        1.76353597      50.86403482      23.37970879
O        0.57072796      51.59383899      25.10902491
C        6.43082802      51.43257788      25.63683767
O        6.45995380      52.70124093      25.83254788
O        5.30494385      50.82762716      25.51405260
O        7.52784813      50.77084528      25.55131690
C        4.00208785      52.39024329      29.12521909
O        4.37879381      53.47593140      29.69795627
O        3.94279052      51.29737136      29.79661238
O        3.68052480      52.39830719      27.88216389
C        4.20718558      55.19480370      24.04940854
O        5.11506704      55.51821408      24.89784195
O        3.21285718      55.98037190      23.84238724
O        4.29051408      54.08303297      23.41240403
C        1.27041824      55.41805725      27.07523059
O        0.04729338      55.28540794      27.44268611
O        1.84679826      54.48153917      26.41237799
O        1.91818507      56.48579892      27.37352485
H        5.17524074      54.98807612      27.69786371
H        3.73856586      54.62586458      28.00877086
O        4.30106175      54.95796575      27.30910056
