24
Properties=species:S:1:pos:R:3 pbc="F F F"
Ca      19.43489058      24.03309532      17.27700334
C       16.46507586      25.84295812      17.82495902
O       17.28167713      24.91122685      17.48777116
O       15.77139399      26.44451139      16.92740928
O       16.33350485      26.16506079      19.06091828
C       19.48807502      22.39131159      14.07767610
O       20.57999034      21.88957144      13.62531267
O       19.51881943      23.45981194      14.78902425
O       18.36531960      21.82515316      13.81779201
C       19.01599001      20.62033361      17.96736865
O       19.65539385      19.65958633      17.40453467
O       18.70775654      20.54432587      19.21150300
O       18.67424138      21.65170149      17.28315871
C       22.29814479      21.99413509      17.48266599
O       22.22972359      20.71326847      17.42474242
O       23.28924520      22.55805268      18.07289698
O       21.38161156      22.71118556      16.94002302
C       17.96793615      23.12195587      20.14340505
O       16.88270076      22.79536900      19.53987144
O       18.08485494      22.92316902      21.40652006
O       18.94097694      23.63560052      19.48158301
H       21.66137688      25.28164172      15.90245452
H       20.97303281      26.03346329      17.02175875
O       20.80148343      25.43662519      16.29334471
