24
Properties=species:S:1:pos:R:3 pbc="F F F"
Ca       4.33290837      10.05777640       5.28728173
C        1.38235231      11.96066662       4.81639709
O        2.31578866      11.08167858       4.88517372
O        0.85660327      12.25136415       3.68161209
O        0.97013587      12.54419888       5.88327192
C        4.48949576      12.65588608       7.77306235
O        3.44800835      13.39778075       7.88947326
O        4.87248509      12.26469340       6.61162243
O        5.14154762      12.29604769       8.81900687
C        3.47017876       8.97875775       7.87660998
O        4.29334566       9.91282567       7.56265642
O        3.00130111       8.20361505       6.96668636
O        3.11544952       8.82019321       9.10040643
C        3.89057396       8.22426175       3.16450041
O        4.50922575       7.94809272       4.25521320
O        3.58461005       7.28484781       2.34441441
O        3.57927398       9.44003613       2.89313564
C        7.85846911       9.42446139       5.16636206
O        8.71900041       9.12738907       6.07184049
O        6.61910409       9.55346979       5.47618240
O        8.23914049       9.60489995       3.95343643
H        6.57231621      10.81185596       4.04450535
H        5.86620878      12.12889224       3.80217723
O        5.72186739      11.18266232       3.80898185
