24
Properties=species:S:1:pos:R:3 pbc="F F F"
Ca      38.11137396      16.63516114      30.71724510
C       35.99157861      16.11169101      27.97981656
O       35.93549285      15.47154421      26.86818822
O       37.12063158      16.53616072      28.41994865
O       34.91735960      16.33572553      28.64653525
C       40.35470527      17.84502217      32.57831415
O       40.08806606      16.61067748      32.34599847
O       41.36661185      18.15761513      33.30426500
O       39.60231637      18.76635497      32.09485708
C       36.39382235      19.24752511      30.59139457
O       36.35272832      19.39877467      31.86579206
O       35.39604914      19.61046128      29.86932847
O       37.42782657      18.72243896      30.04023792
C       40.16927451      15.15307549      29.89282079
O       41.25059450      14.61256719      30.32554886
O       39.08540391      14.46678687      29.83907015
O       40.17076603      16.38119664      29.51815617
C       34.71794889      16.40190279      32.02009803
O       35.87587435      16.19182589      31.50654321
O       34.18592496      15.51972326      32.78650007
O       34.08704274      17.48905779      31.75796414
H       37.05277211      15.35343647      32.85568614
H       38.42372905      15.81545141      33.30168438
O       37.98552434      15.24530003      32.66991253
