28
Properties=species:S:1:pos:R:3 pbc="F F F"
Ca       3.45492004      50.07110635      27.26142263
C        2.58406673      47.72091693      25.58210565
O        2.75204316      46.49020027      25.90733532
O        1.40049832      48.21637825      25.53376525
O        3.59881249      48.45318648      25.29448338
C        1.70169281      51.26432724      24.59814859
O        2.77193218      51.34294950      25.30317368
O        1.76353597      50.86403482      23.37970879
O        0.57072796      51.59383899      25.10902491
C        5.57746225      47.83683187      27.65312918
O        6.72840029      48.05508115      27.12742241
O        4.98445000      46.71497611      27.45708732
O        5.01424251      48.74491248      28.36504873
C        6.43082802      51.43257788      25.63683767
O        6.45995380      52.70124093      25.83254788
O        5.30494385      50.82762716      25.51405260
O        7.52784813      50.77084528      25.55131690
C        0.06177210      50.67070879      27.95067855
O       -0.62266671      49.70341948      27.45615812
O       -0.38041797      51.87386143      27.87619901
O        1.19276466      50.43596115      28.51139688
C        4.00208785      52.39024329      29.12521909
O        4.37879381      53.47593140      29.69795627
O        3.94279052      51.29737136      29.79661238
O        3.68052480      52.39830719      27.88216389
H        1.50504560      48.68342175      28.11655256
H        2.06407100      47.45451490      27.43159012
O        2.27952843      48.12192059      28.08303532
