19
Properties=species:S:1:pos:R:3 pbc="F F F"
Ca      14.62844753      43.38647794      22.78367633
C       18.04644718      42.15083079      22.32411514
O       18.66466176      41.02988655      22.22433019
O       18.63381657      43.16312385      22.85224689
O       16.83648315      42.25597517      21.90746842
C       13.73127002      42.85566079      19.53934901
O       13.33511640      43.37363714      18.43326637
O       13.72552475      43.55678567      20.61501015
O       14.13316891      41.63655956      19.56977051
C       14.86070333      41.65487215      24.79044791
O       15.23418943      40.52006599      25.26095659
O       15.64235134      42.67059740      24.86780724
O       13.70858357      41.77216066      24.23590420
H       12.48042789      45.80484141      23.01549215
H       13.96584979      45.77622671      23.30634979
O       13.27519363      45.29879048      22.84669717
H       16.44528309      45.42639321      23.18693369
H       17.16247406      44.26329650      22.53521437
O       16.42962615      44.86636564      22.41081860
