24
Properties=species:S:1:pos:R:3 pbc="F F F"
Ca      36.78016640      35.00874660      30.77870742
C       36.23287945      33.75229597      28.08808015
O       37.17389806      34.03453605      27.26135093
O       35.00676730      33.92637158      27.74895863
O       36.51752649      33.28417573      29.24932790
C       36.32519591      37.58419693      32.72686340
O       35.82303868      37.77906234      33.89241931
O       37.25921586      38.35146308      32.29377600
O       35.88434897      36.63015695      31.98922065
C       35.64643410      37.27895332      28.21890269
O       36.46192723      36.66575882      28.99840271
O       35.01360755      38.31454178      28.63812099
O       35.47314425      36.86393509      27.01624419
C       39.34447505      33.98171370      31.63296924
O       39.29110490      35.25175925      31.45188691
O       38.60343116      33.20163009      30.93227070
O       40.14667770      33.49104045      32.50724918
C       34.41710390      33.22384358      31.82252231
O       34.13128446      33.38850561      33.06342821
O       34.35776909      34.21840479      31.01259564
O       34.76954572      32.06627531      31.39301757
H       36.53586432      33.05226514      32.95025676
H       37.38550632      34.16866407      33.51916544
O       36.82526534      33.94770961      32.77516211
