28
Properties=species:S:1:pos:R:3 pbc="F F F"
Ca      33.45511886      18.19404062       4.07660320
C       35.74338698      18.90178228       2.24144162
O       34.79628010      18.73094859       1.39146602
O       35.46685916      19.19703407       3.46005212
O       36.96700774      18.77691742       1.87291169
C       32.42045694      15.07747850       4.79454895
O       33.17718072      14.04503847       4.89499954
O       32.81402130      16.20923644       5.25594378
O       31.27492065      14.98062806       4.22269242
C       36.51223849      16.38351360       3.76729227
O       37.63493063      16.91951524       4.08495413
O       35.43030042      16.77344188       4.33826465
O       36.47017191      15.46472937       2.87135259
C       32.76083263      16.59192814       0.88709756
O       33.62251309      16.25353204      -0.00264993
O       33.03859504      16.45792298       2.13351097
O       31.62599578      17.07538830       0.53063256
C       30.25017200      18.98101770       3.78179740
O       31.24282313      18.16704173       3.72563772
O       29.77577059      19.33775034       4.92142599
O       29.70785702      19.40832267       2.69811510
C       32.77168455      19.44069718       7.11643952
O       32.39588360      20.42905848       7.84484278
O       33.49881465      19.64796364       6.07866398
O       32.41523827      18.24569645       7.42233909
H       33.84083469      20.24215837       2.36207508
H       33.35611376      20.90577369       3.63351344
O       33.10558165      20.25807948       2.97475875
