21
Properties=species:S:1:pos:R:3 pbc="F F F"
Ca      41.00985919      26.03947733       6.11488164
C       38.86391113      27.80199679       4.46710513
O       40.13901551      27.71435230       4.58996943
O       38.26975851      28.91261969       4.71644071
O       38.18427468      26.78223133       4.08390628
C       40.79007208      23.30935323       8.23285426
O       40.78186765      22.02550665       8.25093077
O       40.51072174      23.96821802       9.29892953
O       41.07029723      23.93434003       7.14679662
C       39.06823545      26.36682352       8.20870966
O       38.20160909      26.71519203       7.32765707
O       38.69281149      25.74603858       9.26811455
O       40.31178730      26.62811132       8.02441921
C       43.60455577      26.17963635       4.60760780
O       42.54243655      26.85317489       4.34894345
O       44.48320629      25.98926594       3.69087929
O       43.78909447      25.69839735       5.78362365
C       41.35472505      24.40253430       3.42449323
O       40.41155454      24.94463688       4.10655694
O       42.22346611      23.65885060       4.00834265
O       41.43650973      24.61431680       2.16072262
