28
Properties=species:S:1:pos:R:3 pbc="F F F"
Ca      35.79862809      50.59388471      27.66305246
C       36.61023320      52.84608488      29.96593820
O       36.93550852      52.34835739      31.10397047
O       37.25904095      53.84892682      29.49475807
O       35.63176421      52.34531163      29.30225241
C       33.91870686      48.65112103      30.05159319
O       34.50417537      49.34086530      30.96271146
O       33.80057268      49.12495623      28.86408255
O       33.46258413      47.48236557      30.32475919
C       38.20075644      50.29515160      29.86457625
O       37.16725419      49.72361036      29.36072266
O       38.75713422      49.80658450      30.91357595
O       38.67514241      51.35784945      29.32209533
C       38.47547937      49.01375745      27.37650745
O       39.60272660      48.94121567      27.98700576
O       38.11428387      50.11513204      26.82408650
O       37.70413637      47.98837919      27.32868945
C       34.82933091      53.22546472      25.31718421
O       35.58835476      52.40857841      25.95258035
O       35.33951645      54.06635894      24.49271635
O       33.55887456      53.19220910      25.49598187
C       34.07453345      48.77723708      25.74647975
O       35.20405252      48.50690087      26.29398278
O       34.01990143      49.59281641      24.75627757
O       32.99974149      48.23141702      26.18869822
H       33.78953684      50.80619963      25.81008405
H       33.59055372      51.90642066      26.83077722
O       33.67031392      50.95615524      26.74791721
