24
Properties=species:S:1:pos:R:3 pbc="F F F"
Ca      39.41523869      50.53923561      35.10430613
C       41.45967239      48.82971534      36.00849137
O       41.92239977      49.86846773      35.41222562
O       40.34335652      48.89562225      36.63948357
O       42.11326088      47.72505605      35.97376490
C       36.63570661      51.24440836      33.33410806
O       37.86390180      51.53913244      33.56503455
O       35.71346981      52.10619613      33.56959412
O       36.33042858      50.09053145      32.86079414
C       40.35754803      53.63982393      34.48084774
O       40.30007325      52.79081464      35.44237559
O       41.33086458      54.47499332      34.41917861
O       39.43548652      53.66145328      33.58754443
C       40.83679765      49.39958381      33.07773932
O       39.90840496      48.70452192      33.62876758
O       40.72183044      50.67594322      32.99808459
O       41.87490351      48.81721543      32.59624270
C       37.91038532      48.30006789      36.54962725
O       38.36730198      47.11769948      36.34495986
O       37.74018096      48.72374414      37.74970452
O       37.62152708      49.05793106      35.55420705
H       39.43704188      51.12160667      38.10765945
H       38.20064641      50.60512695      37.40305309
O       38.92724950      51.22024970      37.30353670
