17
Properties=species:S:1:pos:R:3 pbc="F F F"
Ca      34.43743798       8.61970255      41.43839386
C       36.19741266      10.66560902      41.79863217
O       37.16825139      11.48628068      41.97925662
O       35.52089252      10.24028179      42.80365575
O       35.89743956      10.27717468      40.61212900
C       32.16763052      10.33407528      39.04885424
O       32.63451722      11.52355165      38.92310989
O       31.12536253       9.98028161      38.38767602
O       32.73783866       9.50114709      39.84241934
C       32.32643279       7.82455868      42.94087344
O       31.44870205       7.25949686      43.68850024
O       32.54367745       9.08563264      43.04646226
O       32.98709377       7.12850197      42.08782963
C       35.95628045       6.85178727      39.91532951
O       37.12541480       6.40777724      39.62441701
O       35.52677119       7.93312316      39.37229668
O       35.21220911       6.20836179      40.74056354
