28
Properties=species:S:1:pos:R:3 pbc="F F F"
Ca      31.92797008      47.45310873      24.20476431
C       31.60744459      44.00734405      23.89065120
O       32.06047726      42.94595994      24.45357036
O       31.07349903      43.93787557      22.72500596
O       31.68940200      45.13838221      24.49288742
C       29.05580393      47.75389104      26.20593263
O       30.18922103      47.27679853      25.83660146
O       28.96071553      48.98606225      26.55431376
O       28.02007016      46.99571023      26.23871211
C       30.48074015      50.42750526      24.41723496
O       30.83383042      50.94687529      25.53716231
O       29.25853951      50.50377241      24.03114722
O       31.34935943      49.82976122      23.68452912
C       34.62095904      45.34727314      24.71677972
O       34.36664456      46.34090471      23.94433259
O       34.30997028      45.40548538      25.96118794
O       35.19559172      44.29953923      24.24698710
C       33.91020982      48.08560936      21.38709823
O       34.43210865      49.24349911      21.19584786
O       32.84000004      47.97174271      22.08820838
O       34.48489720      47.03704207      20.91794236
C       34.07453345      48.77723708      25.74647975
O       35.20405252      48.50690087      26.29398278
O       34.01990143      49.59281641      24.75627757
O       32.99974149      48.23141702      26.18869822
H       30.09186261      45.95589539      22.99115770
H       29.46282189      47.16687599      22.33562058
O       30.26353634      46.87090171      22.76861832
