28
Properties=species:S:1:pos:R:3 pbc="F F F"
Ca      37.09904306      42.54683321      23.70970011
C       35.87761988      40.11019452      21.61697814
O       36.04411438      40.41534441      20.38092822
O       35.88037603      38.87864389      21.98020204
O       35.69853734      41.03611283      22.48833393
C       37.99470839      42.84588733      26.82338300
O       38.27506593      42.22943045      27.91426441
O       36.92342420      42.55440594      26.17836559
O       38.79249892      43.74419099      26.37036630
C       34.62095904      45.34727314      24.71677972
O       34.36664456      46.34090471      23.94433259
O       34.30997028      45.40548538      25.96118794
O       35.19559172      44.29953923      24.24698710
C       36.84901090      39.27655597      25.25733853
O       37.57017157      38.52229985      26.00545610
O       35.57634565      39.31669099      25.42276882
O       37.40169009      39.99896088      24.35106498
C       37.49969486      44.93281705      21.73809559
O       36.90479235      45.85690497      22.40203068
O       38.71055995      45.10209665      21.34591261
O       36.88801537      43.83442265      21.47725945
C       39.48260676      41.68903678      22.04801909
O       40.20878811      42.35599350      21.22553387
O       38.78933062      40.69241516      21.62996883
O       39.44154972      42.02517214      23.28655854
H       38.84777096      44.37012300      24.71362503
H       38.76696444      45.03982674      23.35831606
O       38.46676733      44.26984366      23.84126498
