24
Properties=species:S:1:pos:R:3 pbc="F F F"
Ca      10.30365454      27.88650775      14.97648581
C       10.15275926      25.23636156      15.54867728
O       11.23376886      25.89110648      15.77535335
O        9.26403271      25.71865320      14.75734029
O        9.96313716      24.09657147      16.10865626
C        8.84132002      30.52795693      13.95512594
O       10.04889079      30.10598515      14.06634125
O        8.09749344      30.62737582      14.99699613
O        8.37377143      30.83908974      12.80046113
C       13.53386088      27.65206640      14.02582441
O       14.44034961      28.53607718      13.81261784
O       12.34475024      27.83032094      13.57538542
O       13.81966701      26.58398532      14.67864309
C        8.45165211      26.51181966      17.20285478
O        9.45994433      26.03525244      17.83918424
O        7.38918987      25.80481188      17.06143630
O        8.50206820      27.69921246      16.71680733
C       12.57107553      29.09067782      16.62611844
O       13.74240642      28.61393892      16.84830246
O       12.44023604      30.27315617      16.14311875
O       11.53036351      28.38973647      16.89862892
H        7.58157613      28.54232630      14.03174059
H        7.78136534      27.36959636      14.96805458
O        8.09507066      27.74237314      14.14412628
