20
Properties=species:S:1:pos:R:3 pbc="F F F"
Ca      36.58832463      47.37934179      24.13372791
C       34.62095904      45.34727314      24.71677972
O       34.36664456      46.34090471      23.94433259
O       34.30997028      45.40548538      25.96118794
O       35.19559172      44.29953923      24.24698710
C       37.55271000      49.64624982      22.54977394
O       37.49910139      48.73854487      21.64321240
O       36.70812161      49.63840338      23.51686488
O       38.45090699      50.56180121      22.48924454
C       40.05951853      47.04893745      24.06058264
O       38.88455963      47.48347982      23.77897917
O       40.55579430      46.06590311      23.40027222
O       40.73820167      47.59742941      25.00249653
C       37.49969486      44.93281705      21.73809559
O       36.90479235      45.85690497      22.40203068
O       38.71055995      45.10209665      21.34591261
O       36.88801537      43.83442265      21.47725945
H       37.46297945      46.58336260      26.36948500
H       37.10824032      45.11880903      26.22409527
O       36.98805562      45.97180643      25.80674316
