23
Properties=species:S:1:pos:R:3 pbc="F F F"
Ca      13.25816411      43.65964533       9.09134158
C       13.11789736      41.19395834      10.99469761
O       12.60800027      40.71920142       9.91614929
O       13.80526376      42.27781994      10.95692176
O       12.93284374      40.58973814      12.11243145
C       15.42452632      41.34992099       7.52429257
O       15.60641819      40.20270184       8.07152155
O       15.07831362      42.35625138       8.24268794
O       15.58884715      41.49080976       6.25866821
C       10.56967582      43.31939214      11.34003003
O       11.43487458      43.13700257      12.27106119
O        9.34275128      43.55025775      11.64004854
O       10.92976000      43.26244020      10.10887213
C       10.69385080      43.95863143       7.39328115
O       11.93436028      43.89131131       7.06884808
O       10.25628802      44.97086278       8.05098859
O        9.89081026      43.01394308       7.05960145
H       12.32455414      46.60957687      10.10420741
H       11.25456999      45.57289090       9.83529978
O       12.17026541      45.78123661       9.65002763
H       15.81541645      44.62219314       9.23762365
H       15.20562920      45.98493109       9.48862157
O       14.98752859      45.10066862       9.19409804
