26
Properties=species:S:1:pos:R:3 pbc="F F F"
Ca      18.82201306      49.53071527      18.09936537
C       20.07948072      47.32919381      16.11810269
O       21.20473394      47.94447163      16.05569753
O       18.99323063      47.99301173      16.28562139
O       20.04047760      46.05009808      16.01298916
C       15.65719154      49.79996428      17.13409198
O       15.71493480      49.11492516      16.04963645
O       14.97397306      50.88645881      17.17149270
O       16.29278635      49.40504623      18.17750733
C       19.55316541      51.43142043      15.75693979
O       19.48085693      50.46048199      14.91985771
O       19.08492235      52.58525514      15.44377771
O       20.08255770      51.24530045      16.91182483
C       21.54731422      47.22209598      18.70394069
O       21.36290191      45.98099579      18.97655596
O       22.67374038      47.61453271      18.22874186
O       20.60637363      48.07124206      18.90946002
H       19.62256322      49.25978229      20.47035759
H       19.40806023      50.73097353      20.75580485
O       19.14233010      50.02842767      20.16247000
H       16.93325209      51.60284006      17.40656979
H       17.56261066      51.57831031      16.02990685
O       17.54708993      51.10825454      16.86359650
H       18.22869194      46.81129373      18.06274499
H       19.04079400      47.12709565      19.30074926
O       18.22718258      47.35466092      18.85076888
