24
Properties=species:S:1:pos:R:3 pbc="F F F"
Ca      35.14584454      39.81215204      44.51920548
C       36.80982689      42.54930243      45.15242033
O       37.92736273      43.05440925      45.53273220
O       35.70359853      43.08219412      45.52784228
O       36.79841277      41.50444905      44.40622499
C       36.42751539      40.79143453      47.46003959
O       35.94096124      41.67600696      48.25342488
O       35.65666754      39.91395351      46.92666873
O       37.68282714      40.79213570      47.19012371
C       37.21254034      38.48420474      42.85716097
O       38.15857000      37.95602469      42.16816808
O       36.07292027      38.71445629      42.31226869
O       37.41009733      38.79370671      44.08754192
C       33.03626776      37.89387725      43.24704765
O       33.98365639      37.76516142      44.10410256
O       33.25720390      38.48759984      42.13020555
O       31.87106888      37.41844772      43.50187006
C       32.37548736      40.63672760      45.59712831
O       31.16199192      40.31331578      45.86450372
O       33.07067687      41.28853779      46.45765781
O       32.89379329      40.30832923      44.46922341
H       35.55025258      40.60514343      42.03166678
H       34.96935737      41.98419355      42.26118086
O       34.78962618      41.05436614      42.40028346
