24
Properties=species:S:1:pos:R:3 pbc="F F F"
Ca      49.45731344       4.97524205      36.64904614
C       50.54320235       4.92049425      33.98289360
O       51.20354778       5.68083549      33.18558674
O       51.15386051       4.01576823      34.65996783
O       49.28134270       5.09932376      34.14233097
C       51.41584283       6.40566561      39.36685420
O       52.66468171       6.69373491      39.44477942
O       50.71444111       6.29547895      40.43669042
O       50.87057463       6.21835838      38.21957338
C       51.25118335       2.38821866      38.08334314
O       50.22195344       1.79758804      38.57375636
O       52.42170949       1.89096713      38.26018469
O       51.10917906       3.47222136      37.40996654
C       47.84332655       2.56929974      34.85278726
O       46.84789351       2.64345663      34.04515829
O       48.74250532       1.66867874      34.68246363
O       47.93331694       3.38813968      35.83770026
C       49.18701202       8.05048181      35.00949669
O       48.10500459       7.98393502      34.32139680
O       49.44651276       7.14933613      35.88656372
O       50.01120909       9.01624500      34.81805224
H       48.66950181       3.81312927      39.16771985
H       48.91807100       2.95062142      37.94862643
O       48.37589597       3.67208151      38.26764602
