20
Properties=species:S:1:pos:R:3 pbc="F F F"
Ca       7.06587796       6.11676267      17.47494588
C        7.93270298       8.06832506      15.42832117
O        8.99451698       8.43323509      14.80538750
O        7.87201488       8.16871967      16.70695040
O        6.92739510       7.61360859      14.77162986
C        7.31581695       5.99073194      20.26360670
O        8.20272468       6.81012352      19.82825655
O        6.10952685       6.05855371      19.82785887
O        7.63108877       5.11097939      21.14421283
C        5.11313713       4.47230137      16.40912482
O        5.41118559       5.58392212      15.83980638
O        5.62466802       4.17759059      17.54936121
O        4.31311127       3.64998804      15.83256905
C        9.13144989       5.37068179      14.92223625
O       10.35862173       5.09149965      15.17671932
O        8.82598778       5.99809027      13.84441124
O        8.21096922       5.03284405      15.75123333
H        5.46322485       8.75522110      17.81652643
H        4.63900125       7.50582184      18.04357737
O        5.38889019       7.83872556      17.55055250
