24
Properties=species:S:1:pos:R:3 pbc="F F F"
Ca       8.76865657      48.67371538       3.56541182
C        9.50659391      51.56206282       3.36676925
O       10.35622913      50.63316918       3.11392175
O        9.88645450      52.63530575       3.96049519
O        8.27501264      51.41312278       3.03559036
C        7.70563648      45.29816390       2.49282806
O        8.17225652      44.82388223       1.39468086
O        8.29473702      46.28325554       3.06829235
O        6.64204036      44.79640363       3.00819597
C        5.51235814      48.53287092       4.35206436
O        6.41511629      49.39693144       4.05696311
O        4.44033376      48.90426143       4.95330521
O        5.68722102      47.29548253       4.05719019
C       10.91252750      48.30996804       1.27825496
O       11.48763033      49.02595996       0.38087792
O        9.64094685      48.13537019       1.24260380
O       11.61063157      47.75793605       2.20377320
C       10.19843321      49.70497885       5.62468096
O       10.62452225      48.61231847       5.10200097
O       11.01665143      50.49078863       6.22607549
O        8.95435919      50.01247414       5.54480795
H        7.65466653      47.33578623       6.34510374
H        7.45571737      46.94401962       4.89636865
O        7.98369566      47.50685598       5.46266005
