19
Properties=species:S:1:pos:R:3 pbc="F F F"
Ca      24.57664773      14.78961377      26.97406883
C       23.68876275      15.06337284      23.87185406
O       24.56643432      14.52670654      24.64018861
O       23.87734412      16.24648217      23.40996070
O       22.61787358      14.42085201      23.57349274
C       22.53681435      16.16383512      27.62124117
O       22.82638329      15.53888715      28.70486910
O       22.48872355      17.44691139      27.61336120
O       22.30261407      15.50598334      26.54372520
C       26.51918962      14.35318946      29.23894000
O       26.78141667      14.70486968      28.03220302
O       27.47662391      14.11752811      30.06139924
O       25.29963924      14.22571459      29.61986374
H       23.34317431      12.11257460      26.80378280
H       24.60596673      12.20700736      25.97412445
O       24.08302571      12.68960175      26.61433346
H       24.47798722      17.52347824      27.19374594
H       25.46877637      17.33276234      26.06509209
O       24.97854519      16.85121131      26.73143574
