24
Properties=species:S:1:pos:R:3 pbc="F F F"
Ca      11.25688937       1.74186382       4.12954370
C       12.90672859       2.86819070       6.23537890
O       13.86860944       2.78769120       7.08211451
O       11.69475653       2.96597688       6.64795310
O       13.15581369       2.83874693       4.97611487
C       11.78897366       3.74944674       1.17995752
O       12.62898801       3.45681913       0.25399734
O       10.85074280       4.59575196       0.95159879
O       11.88771906       3.19642884       2.33454735
C        9.18276124       0.99250179       2.14217760
O       10.40869737       0.75996157       1.83942085
O        8.31687509       1.18197704       1.21320165
O        8.82271125       1.03556675       3.37391029
C       14.19690170       0.29497422       4.50475366
O       14.75449766       1.16292568       3.74029338
O       12.99324501      -0.08662532       4.27184911
O       14.84049070      -0.18614065       5.50623934
C        9.31352848       0.26128888       6.43972946
O        8.11171258       0.19416014       5.99275374
O        9.52331683       0.49439644       7.68484191
O       10.30536706       0.08529442       5.64352760
H       10.63616877       4.14764677       5.67626992
H        9.44489303       3.93241689       4.76718609
O       10.40196729       3.92001835       4.77651060
