20
Properties=species:S:1:pos:R:3 pbc="F F F"
Ca      50.79064060      20.92755735      44.13670123
C       53.12790374      22.76100547      42.80684799
O       53.65270015      23.85945853      42.39862575
O       52.23264584      22.78026899      43.72706412
O       53.50299264      21.64277365      42.29938196
C       53.24162355      19.60423542      44.30298219
O       52.88979937      20.23721903      45.36326933
O       52.34925485      19.08735603      43.53801754
O       54.48630480      19.47728214      44.01434973
C       49.85332344      18.15725346      45.96413963
O       50.42486851      19.30465327      45.89019286
O       50.23978741      17.30286548      46.84125157
O       48.88703231      17.86894800      45.16926893
C       48.06015575      20.91337834      44.88180053
O       48.43736412      20.39373942      43.76988952
O       48.90378169      21.54785654      45.61282015
O       46.84205611      20.78860333      45.26822206
H       51.40929737      21.00813114      41.52106601
H       50.61670133      22.28644944      41.34905133
O       50.68820470      21.50882131      41.90259778
