20
Properties=species:S:1:pos:R:3 pbc="F F F"
Ca      11.13329832       2.43644217      38.91134754
C        9.11939913       0.67888595      40.24452021
O        8.39951085       0.04496524      39.39096252
O        9.41097399       1.91368693      40.04727435
O        9.53839082       0.08111961      41.30082343
C       12.21554499      -0.07096684      38.15800857
O       12.51686166      -1.31442112      38.05054807
O       13.14467339       0.80613560      38.28459729
O       10.98466018       0.29429587      38.15007263
C       12.23084657       5.01412590      39.26506615
O       12.69986916       4.16807434      38.42074925
O       12.73371378       6.19323003      39.33918874
O       11.25212797       4.68447224      40.02801733
C       11.51748796       1.91065334      35.80902459
O       10.72081030       2.62520731      36.51902934
O       12.78484122       2.10977079      35.86963413
O       11.05038933       0.96722891      35.07329900
H       13.17741390       1.31077751      40.56262299
H       12.00111652       0.80269631      41.36889413
O       12.28860745       1.54166920      40.83270362
