28
Properties=species:S:1:pos:R:3 pbc="F F F"
Ca      42.86203547      20.09727731      34.06366882
C       44.01534007      21.11836143      36.66921825
O       44.48622301      20.39942320      35.71524972
O       44.44324587      22.31664877      36.84144733
O       43.10749450      20.64341995      37.44310845
C       40.35470527      17.84502217      32.57831415
O       40.08806606      16.61067748      32.34599847
O       41.36661185      18.15761513      33.30426500
O       39.60231637      18.76635497      32.09485708
C       40.37140210      21.59323303      33.46262593
O       40.09607917      20.64874175      34.28772576
O       41.34403771      21.45956465      32.63511822
O       39.67926714      22.67468678      33.47055984
C       45.21037555      22.13293115      32.25938379
O       44.33130234      21.68173336      33.07932597
O       45.02769183      22.01599214      30.99383804
O       46.27530339      22.69501721      32.70507647
C       41.59336823      23.25460944      35.35114366
O       41.57200341      24.20149035      34.48395816
O       41.02815874      23.41669054      36.49276234
O       42.19761155      22.15333103      35.08448934
C       43.49602243      17.09550693      34.92802109
O       43.28435751      17.27309633      36.18194115
O       44.20615873      17.93967790      34.27095383
O       43.00721927      16.06763945      34.33370167
H       42.04148994      18.59256074      36.25839797
H       41.04598696      18.57949388      35.11791639
O       41.45552716      19.16093519      35.75856836
