24
Properties=species:S:1:pos:R:3 pbc="F F F"
Ca      47.06022955      39.30679713      17.86277413
C       44.86986351      36.95966280      19.45245429
O       45.70849626      37.91027749      19.24829193
O       44.94812183      36.25314274      20.52173464
O       43.96013007      36.70814422      18.58194930
C       49.75883025      38.90036989      18.72318416
O       48.99930489      39.80080223      19.23406209
O       49.39998612      38.28990261      17.65210340
O       50.87874793      38.61277917      19.28151144
C       44.88636436      42.03837008      17.78737000
O       45.36956644      42.91394679      18.59268805
O       43.62884131      42.02933351      17.52812083
O       45.66068532      41.17182994      17.24130111
C       49.32140856      41.91560149      16.22613815
O       50.53667700      41.66169879      15.89855318
O       48.92642059      43.13257855      16.33387465
O       48.50435472      40.95257211      16.45776986
C       47.45401811      38.19859659      14.56556010
O       48.09848269      39.20018972      14.08583953
O       47.37834587      38.03306284      15.83659415
O       46.89461326      37.35644185      13.77404458
H       45.61590290      40.34207032      20.17905154
H       46.16084931      41.59421872      19.52555861
O       46.27849557      40.64483475      19.55813566
