24
Properties=species:S:1:pos:R:3 pbc="F F F"
Ca      52.27199494       8.51777742      29.89411940
C       54.66845246       8.49454282      27.48737543
O       55.89106990       8.56973147      27.10239532
O       54.28193320       9.14095332      28.52728539
O       53.82981526       7.78184349      26.82601039
C       54.37680801       7.62308463      32.61653662
O       55.61764570       7.95107217      32.65399269
O       53.64193329       8.00221273      31.63425468
O       53.87376200       6.90578991      33.55520046
C       54.10163943       5.95581880      28.89489471
O       52.98675001       6.28105209      29.44252390
O       54.12023845       5.10710842      27.93156820
O       55.19893333       6.47192566      29.31707087
C       52.20107694      10.99783772      31.27077632
O       52.00289680      12.11583472      31.87032747
O       51.35441777      10.04120146      31.39988682
O       53.24979368      10.83386034      30.54830921
C       51.23985334      10.39602639      27.61058203
O       52.35117865      10.87517261      27.18159631
O       50.16012907      11.08229081      27.50154052
O       51.20838630       9.23093910      28.14931686
H       49.89320814       7.88926893      30.71056332
H       50.00403297       6.90174803      29.56845319
O       50.47469439       7.22788861      30.33548770
