21
Properties=species:S:1:pos:R:3 pbc="F F F"
Ca      36.62692612      43.91123556       2.37481386
C       36.80982689      42.54930243      -0.04287500
O       37.92736273      43.05440925       0.33743687
O       35.70359853      43.08219412       0.33254696
O       36.79841277      41.50444905      -0.78907034
C       35.01804336      46.24301434       2.31370476
O       35.90123122      46.24654766       3.24570431
O       34.61062487      47.35210947       1.81113671
O       34.53311977      45.13102710       1.89300297
C       36.42751539      40.79143453       2.26474427
O       35.94096124      41.67600696       3.05812955
O       35.65666754      39.91395351       1.73137341
O       37.68282714      40.79213570       1.99482838
C       37.44556781      46.72354608       0.67486326
O       38.70267391      46.50011581       0.81058053
O       36.98860886      47.91708619       0.79858273
O       36.64542066      45.75343622       0.41542654
C       38.71496110      43.89772325       4.13763391
O       37.50026936      43.74903174       4.52631179
O       38.96192401      44.36215276       2.96632250
O       39.68257880      43.57075500       4.91574949
