24
Properties=species:S:1:pos:R:3 pbc="F F F"
Ca      43.98756107      47.11318551      12.93551173
C       45.03754448      46.15759873      10.25311656
O       44.05749427      45.37756473      10.53543650
O       45.39826710      46.31900083       9.03144371
O       45.65687208      46.77623063      11.19246948
C       43.96756129      49.52599473      14.00252186
O       43.09888365      48.68161189      14.42804841
O       44.35700306      49.48534375      12.77968151
O       44.44391440      50.41348212      14.79883183
C       41.10799345      46.45684290      11.28690334
O       40.75073699      47.60479673      10.83609787
O       41.86638148      46.38057467      12.32019253
O       40.71657272      45.38544909      10.69736041
C       47.32468881      47.81106591      14.13017814
O       47.57087405      48.95533499      14.65811176
O       46.13334775      47.52379866      13.74695131
O       48.27174509      46.95770132      13.97675482
C       45.05631390      44.50621224      14.82722167
O       44.28755171      45.09266953      13.98239951
O       46.32801629      44.51242088      14.65006004
O       44.55325756      43.91211441      15.84831592
H       43.27949324      47.67207764       9.99941010
H       42.43057315      48.35011990      11.05368166
O       43.32713878      48.07074989      10.86832957
