23
Properties=species:S:1:pos:R:3 pbc="F F F"
Ca      37.22678302      30.23695478      40.89510093
C       33.84998064      30.71571336      40.60093205
O       33.33644018      29.60969873      40.19885786
O       33.15678331      31.52070320      41.32212886
O       35.05894676      31.01365080      40.28741862
C       35.47736451      28.55715373      43.31704290
O       34.94475474      27.44886848      43.68675248
O       35.61283112      29.51679529      44.15929667
O       35.86780798      28.70838414      42.10323163
C       37.88015683      32.32454133      42.81939618
O       36.96906953      32.49133810      41.93015234
O       38.25521648      31.13905678      43.13972887
O       38.40719876      33.34278930      43.39737051
C       39.42930255      27.49675824      41.18209483
O       40.49097636      27.35718378      41.89062807
O       38.63834845      28.48479420      41.39849494
O       39.15412658      26.64349216      40.26292814
H       39.87485525      30.29768492      39.69191429
H       39.78436549      31.73106964      40.17057387
O       39.69441279      30.82615038      40.46934284
H       37.49380073      29.38953363      38.24292965
H       36.03126551      29.09928783      38.50488240
O       36.88247233      29.15051099      38.93963887
