20
Properties=species:S:1:pos:R:3 pbc="F F F"
Ca       5.07393006      37.97033675      22.79938086
C        2.61148070      35.79079584      22.89792403
O        2.90443699      34.56000160      23.11696362
O        3.17950655      36.42463718      21.93654582
O        1.75982782      36.39131533      23.64807049
C        3.74028644      37.12593621      25.18181684
O        4.56858925      36.26861018      24.70478156
O        3.66050356      38.29830303      24.66427816
O        2.98285372      36.80674538      26.16825934
C        6.38955116      39.77315092      25.35859795
O        5.36524428      40.08764316      26.06608928
O        7.51683035      39.54208737      25.92825152
O        6.28533405      39.68470113      24.08189544
C        7.36204559      36.51429579      22.11492802
O        6.18317536      36.04346443      21.92196002
O        7.52716232      37.77313503      22.30653648
O        8.37565977      35.72611242      22.11756369
H        3.46043670      40.10649044      21.87448595
H        3.62202493      38.95134770      20.90937991
O        3.37744016      39.15493629      21.81213234
