23
Properties=species:S:1:pos:R:3 pbc="F F F"
Ca      19.77512884      47.32159511      40.51473532
C       17.46593070      45.66648294      41.01494886
O       18.45011052      45.83896260      41.82135891
O       17.40858553      46.33445786      39.91987924
O       16.53265461      44.83530288      41.30955348
C       19.00082356      48.20441490      37.58780176
O       19.59187077      48.73954145      38.59426029
O       18.94107993      46.92604980      37.48354551
O       18.46951997      48.94765346      36.68559949
C       21.98916895      44.88969394      42.20895090
O       21.99277933      43.79691287      41.53480462
O       21.38113423      45.92405828      41.75174099
O       22.58316498      44.94453435      43.34597213
C       21.33123101      49.36885732      41.91638650
O       21.52043730      50.63073983      42.05959797
O       21.67803970      48.78742408      40.82537086
O       20.79521604      48.68840806      42.86419067
H       21.05056262      47.02764934      38.10698418
H       21.22459835      45.65734241      38.72655307
O       21.26331802      46.59142844      38.93201681
H       17.50652026      48.46923102      41.74775903
H       18.79427972      49.10642603      42.22478444
O       18.42794706      48.58068932      41.51370533
