28
Properties=species:S:1:pos:R:3 pbc="F F F"
Ca      30.97322407      33.04389130      38.26953026
C       31.28581241      30.10159123      36.71659033
O       31.18195740      30.51251811      35.50456495
O       31.62612732      30.92047423      37.64517483
O       31.05881435      28.86965531      36.99847321
C       28.59128743      30.59464847      39.27470652
O       29.57967576      31.31434450      39.66685900
O       27.38982066      30.93902550      39.56888366
O       28.80373106      29.53682607      38.57862000
C       33.29260444      34.54828497      39.27939322
O       33.23149580      33.26665967      39.32801198
O       32.47762416      35.20201486      38.53299797
O       34.16433782      35.17656894      39.98224579
C       27.52950902      32.69406848      37.30496620
O       27.14337523      31.65671406      36.65423252
O       28.73389328      33.12047038      37.17730374
O       26.70817366      33.31134061      38.07505800
C       29.50260499      33.75661530      40.78844238
O       28.46835535      34.19458971      40.16622007
O       30.67834239      34.02325870      40.34663034
O       29.36126753      33.05833897      41.85665993
C       32.03974702      34.73851233      35.91949688
O       33.26012988      34.68225982      35.52432441
O       31.33957603      33.66493360      35.99597599
O       31.52302628      35.86680105      36.24907905
H       30.47156727      35.52432674      38.45946105
H       29.14797865      34.80566853      38.61288445
O       29.72519015      35.19720176      37.95732330
