24
Properties=species:S:1:pos:R:3 pbc="F F F"
Ca       9.54961712      37.88090014      36.32844563
C        9.63852687      37.59933104      33.16958763
O        9.86674736      38.14449465      32.02968965
O        9.02783173      38.25937457      34.08612966
O       10.01093451      36.39028043      33.38905150
C        8.87654773      35.35613805      36.91763378
O        9.90362068      35.35537376      36.14704863
O        8.82661172      34.55721873      37.92158924
O        7.89341612      36.14597835      36.67620028
C        9.49227372      38.17582393      39.78501242
O        9.61797921      37.54126347      40.89415050
O        9.18470396      37.53985026      38.71282076
O        9.66345751      39.44788499      39.75018639
C       10.78768340      40.69877550      35.94275718
O       11.48575260      40.85012999      34.87577643
O        9.89652348      41.56859285      36.25566040
O       10.97222101      39.67125511      36.69028943
C       12.38291995      36.43379624      37.22048304
O       12.93901071      37.09180991      38.17247605
O       12.01629388      37.04013071      36.14975765
O       12.18128514      35.17188479      37.34470506
H        7.56058880      39.82545724      37.31271653
H        8.28654126      40.43670994      36.13320038
O        8.23431291      39.63854044      36.65896597
