24
Properties=species:S:1:pos:R:3 pbc="F F F"
Ca      23.77451266      33.82272416       5.29729788
C       20.52728478      33.12394969       5.82177139
O       21.65614963      33.67240411       6.09291098
O       20.29301524      32.68909135       4.63658329
O       19.63653100      33.00124822       6.73837213
C       25.87295607      33.17053668       3.20122325
O       25.86609021      33.11421506       4.48396912
O       26.58220983      34.05695679       2.60132761
O       25.17911582      32.33349045       2.51814523
C       25.07959894      36.63980761       3.75129867
O       24.91835674      35.80237164       4.71117286
O       24.73276281      36.32164158       2.55667258
O       25.58231608      37.79754829       3.98702788
C       24.64234514      35.33998625       7.82131862
O       25.88284558      35.43254809       8.13951238
O       24.00772217      36.37512355       7.40370541
O       24.03444560      34.21406555       7.92816923
C       23.03069056      30.98305898       5.87064812
O       22.22723460      30.04620324       6.22478910
O       23.40386785      31.07993926       4.64589960
O       23.46096923      31.82303445       6.74125565
H       23.19562389      32.68793767       2.81731015
H       21.81785247      33.00546232       3.35843786
O       22.67820056      33.39504153       3.20267927
