24
Properties=species:S:1:pos:R:3 pbc="F F F"
Ca      42.31376917      34.24673492      42.16936276
C       43.66137758      36.13930264      39.76078121
O       44.09542104      35.03677086      39.26612340
O       44.06103150      37.26040864      39.27906074
O       42.83744496      36.12083160      40.74538784
C       42.83931405      36.52843576      44.61797019
O       43.68404041      35.88433418      43.89670259
O       42.13173404      37.46433354      44.09635543
O       42.69313730      36.22815593      45.85777689
C       39.71370681      33.85866893      40.04888376
O       39.51681177      33.06267258      39.06081705
O       39.02262765      34.93579221      40.15313637
O       40.59927670      33.57582318      40.93455757
C       42.97897398      31.43453446      42.07577541
O       44.24776502      31.63081962      42.05856222
O       42.25715351      31.98071095      42.98644619
O       42.43062668      30.70062270      41.17614016
C       40.42467473      35.50755981      43.75005283
O       41.19815950      34.68080250      44.35573566
O       40.69622523      35.88089685      42.55191366
O       39.37419130      35.95312021      44.33879614
H       44.81543981      34.89921077      42.72204506
H       44.90576773      34.86737385      41.21117696
O       44.65027302      34.33646701      41.96555940
