27
Properties=species:S:1:pos:R:3 pbc="F F F"
Ca      37.14474929      31.43344490      30.53114290
C       36.23287945      33.75229597      28.08808015
O       37.17389806      34.03453605      27.26135093
O       35.00676730      33.92637158      27.74895863
O       36.51752649      33.28417573      29.24932790
C       35.06158538      30.36695173      28.25948427
O       36.19893256      30.42353176      28.85269218
O       34.00976031      30.81515173      28.84380980
O       34.97414513      29.85155734      27.08671903
C       39.34447505      33.98171370      31.63296924
O       39.29110490      35.25175925      31.45188691
O       38.60343116      33.20163009      30.93227070
O       40.14667770      33.49104045      32.50724918
C       34.41710390      33.22384358      31.82252231
O       34.13128446      33.38850561      33.06342821
O       34.35776909      34.21840479      31.01259564
O       34.76954572      32.06627531      31.39301757
C       37.39239197      30.10214095      32.82168220
O       37.38426505      31.36364479      33.06084328
O       38.25481461      29.34505870      33.39762460
O       36.53809624      29.59771937      32.00657872
H       39.31774513      29.67632222      31.31725608
H       40.05286847      30.91581924      30.85342856
O       39.21472557      30.62193678      31.21033298
H       39.43813620      31.84839984      28.62220423
H       38.21377278      32.71686873      28.42575786
O       38.48685120      31.80486310      28.52528561
