22
Properties=species:S:1:pos:R:3 pbc="F F F"
Ca       4.39186078      38.49984284       1.52391903
C        5.82786268      38.32508145      -0.82272978
O        6.00609260      39.59184094      -0.71223593
O        5.37641106      37.83354251      -1.91965058
O        6.09979734      37.55000182       0.16416319
C        3.45348942      35.99689604       0.03758972
O        3.23544677      37.25262289      -0.11816839
O        4.04715105      35.32914793      -0.88454445
O        3.07367658      35.40794640       1.11347681
C        6.76808634      39.01415734       3.15005608
O        6.48421691      39.64536182       2.06855012
O        6.16180335      39.30825280       4.24302672
O        7.66456052      38.09497385       3.14047693
H        2.50886762      39.67049581       0.08983332
H        3.15340675      40.76545254       0.91295798
O        3.36115082      40.01122887       0.36139578
H        2.81568524      40.14638285       3.20449275
H        2.98122978      38.87316493       4.00661888
O        3.23061068      39.28416807       3.17890099
H        5.03273978      36.18085638       3.40005309
H        4.55370482      35.84111259       2.00470552
O        5.09639923      36.46415639       2.48795677
