20
Properties=species:S:1:pos:R:3 pbc="F F F"
Ca       4.36973798      39.48863147      27.94816867
C        4.74158649      38.09665381      30.28310594
O        5.12567203      37.42683115      31.30900522
O        4.62094056      37.51482022      29.14487587
O        4.48296119      39.34940681      30.39435846
C        1.55103876      39.39208918      27.69630192
O        1.97019916      39.70957553      28.86769640
O        2.34666690      39.45612949      26.69055186
O        0.33282772      39.02260655      27.52866354
C        6.38955116      39.77315092      25.35859795
O        5.36524428      40.08764316      26.06608928
O        7.51683035      39.54208737      25.92825152
O        6.28533405      39.68470113      24.08189544
C        3.11835378      42.29186816      29.01017216
O        2.34405888      42.07453293      30.01111696
O        2.84375240      43.23033263      28.17798469
O        4.17243013      41.57709454      28.84683413
H        6.92661932      39.19207340      28.89588209
H        6.92215258      40.01598980      27.62582812
O        6.47067703      39.91427899      28.46371669
