18
Properties=species:S:1:pos:R:3 pbc="F F F"
Ca      34.48118757       3.41831963      31.23762492
C       35.61355253       0.38890168      31.07340512
O       36.49338601       0.27213021      32.00125957
O       34.72771765      -0.52608525      30.90984478
O       35.62703557       1.41475293      30.30132755
C       34.18701782       3.76003334      33.95124736
O       34.13538527       4.12487591      35.18123922
O       33.10210305       3.53793754      33.30140929
O       35.32378488       3.60691868      33.37420993
H       33.43042876       5.92620770      32.47976154
H       34.93195844       6.03999051      32.32369352
O       34.16539535       5.59272309      31.96513273
H       34.18172144       4.65969727      28.51702855
H       35.18183147       3.52354473      28.54588185
O       34.59235023       4.02748743      29.10691097
H       31.89640755       1.97608439      30.54182680
H       31.70822284       3.42922276      30.16120813
O       32.21440860       2.85730279      30.73819651
