20
Properties=species:S:1:pos:R:3 pbc="F F F"
Ca      23.25302666       0.36431419      35.51875099
C       23.67672587      -2.08211326      34.00741321
O       23.53553494      -3.21754157      33.42472616
O       24.32386635      -2.00432047      35.11367448
O       23.16028722      -1.02646292      33.49016092
C       25.66970103       1.78849834      35.28828176
O       26.71759068       2.50561899      35.09746350
O       25.55469934       0.65132471      34.70312486
O       24.72936152       2.21603208      36.05100193
C       23.17843629      -0.27548817      38.53280045
O       22.75871648      -1.42640464      38.14824625
O       22.94352283       0.76515584      37.81828596
O       23.83129613      -0.16491207      39.63289259
C       20.02069281       1.55934202      34.95472530
O       21.21704424       1.17352246      34.69320122
O       19.34759807       2.20611972      34.07317072
O       19.49921564       1.30268136      36.09959634
H       22.52864800       1.44498549      33.31369714
H       23.70112579       2.29804324      33.74899415
O       23.48194786       1.50811393      33.25482365
