25
Properties=species:S:1:pos:R:3 pbc="F F F"
Ca       4.76232585      31.61425404       7.20495907
C        3.68519658      33.42882183      10.07892958
O        3.60525894      32.75463944      11.16876912
O        4.17681221      32.88727063       9.02361078
O        3.28000574      34.64677742      10.04627478
C        4.21209162      33.62572056       5.29567039
O        4.94715373      33.74607959       4.24979121
O        3.14993794      32.90544573       5.25442839
O        4.53241254      34.23575419       6.37914633
C        6.52460136      29.01207560       9.19057031
O        7.08872900      29.22522241      10.32414211
O        5.77248295      29.91226660       8.66843000
O        6.72262207      27.90376160       8.57324995
C        1.44703590      30.63256729       7.46044509
O        0.88657486      29.47735085       7.45676008
O        0.82625011      31.64882549       6.98034224
O        2.62345738      30.77378867       7.95516078
C        7.59010312      33.17948187       7.92137064
O        8.70276603      32.63249179       8.25519644
O        7.26300514      34.32025925       8.41156505
O        6.79912173      32.58021924       7.10657660
C        5.44269890      29.47258512       4.92542811
O        4.73282660      29.13271846       3.91091702
O        5.74258683      30.70664642       5.11468709
O        5.86320626      28.57693837       5.74374956
