27
Properties=species:S:1:pos:R:3 pbc="F F F"
Ca      46.24377492      30.31612831      23.58928495
C       46.18570132      29.33858310      21.02500198
O       45.27221443      30.18597097      21.33505267
O       46.27346225      28.90093625      19.82108334
O       47.00348258      28.91930042      21.92171408
C       44.07251029      29.81543427      26.39875100
O       44.21901020      30.40194053      27.53153292
O       43.29897355      28.79544487      26.29920634
O       44.70492779      30.24467278      25.36703010
C       48.12200639      31.19384897      20.84259070
O       49.09061155      30.36962491      20.66620396
O       47.50401532      31.68449458      19.82967043
O       47.77313447      31.52948638      22.03182972
C       49.02660185      31.40218183      24.95946362
O       48.46457799      30.44060826      24.32059205
O       48.82032180      31.54322278      26.21891135
O       49.80203889      32.21732472      24.34068153
C       46.73087829      33.13479258      25.74120245
O       47.69547992      33.98206692      25.72303610
O       46.10912926      32.89324435      26.83835417
O       46.38907069      32.52788627      24.66254978
H       44.08646006      27.77206869      23.52237563
H       43.97455801      29.10138841      24.23811456
O       44.20051189      28.71355787      23.39267705
H       46.23287179      27.97835240      25.35432172
H       47.18865330      27.90384815      24.18264516
O       46.86917679      28.49729612      24.86234051
