20
Properties=species:S:1:pos:R:3 pbc="F F F"
Ca      10.05887550      36.14737222      23.63760960
C       12.87801925      37.50294671      25.31444357
O       13.44401805      37.39311733      26.46171745
O       11.68361779      37.06394739      25.14315731
O       13.50600438      38.05279216      24.33875970
C       10.37954964      38.67803472      22.55276415
O       11.20032801      37.72881498      22.28080637
O       10.19712235      39.62996961      21.71062606
O        9.75056681      38.68184929      23.67214896
C       12.16516609      34.63246972      22.48922439
O       11.08954136      34.83840068      21.81894056
O       12.12133989      34.57312347      23.77110338
O       13.28646516      34.49792526      21.87828852
C        7.36204559      36.51429579      22.11492802
O        6.18317536      36.04346443      21.92196002
O        7.52716232      37.77313503      22.30653648
O        8.37565977      35.72611242      22.11756369
H        9.13327521      33.54593827      24.16432380
H        7.95031802      34.37567320      23.71260772
O        8.68085833      34.37282174      24.33110133
