27
Properties=species:S:1:pos:R:3 pbc="F F F"
Ca      23.39390182      20.56496665      42.23160078
C       22.85445883      22.30912698      44.60269456
O       23.38685358      23.05930689      45.49848623
O       22.78772727      22.71149758      43.38519664
O       22.37756143      21.16185415      44.92671727
C       19.95684861      19.55609094      42.61691546
O       20.09154512      19.91140659      43.84339832
O       20.80519186      19.95036547      41.73741923
O       18.97378208      18.80653950      42.26992055
C       21.82937484      21.74791998      39.67723025
O       22.25983605      22.13533581      40.82320922
O       20.59478444      21.91345154      39.36571454
O       22.63086254      21.18429684      38.84740955
C       24.76025750      20.10656305      45.23218424
O       25.21311512      20.68246631      46.28665756
O       24.89273207      20.66981705      44.08594940
O       24.18617018      18.96159390      45.32234208
C       25.37680148      18.77968373      40.42331978
O       25.94158123      17.62660906      40.43318259
O       26.00904617      19.80036121      39.96819434
O       24.18025745      18.91232615      40.86979811
H       23.40948371      18.05138891      42.90573046
H       22.03789225      18.21945779      42.28735795
O       22.61110715      18.57597958      42.96599481
H       25.34354942      22.00103963      40.73021364
H       25.31921443      22.56444762      42.13516006
O       25.22606590      21.74718635      41.64563047
