24
Properties=species:S:1:pos:R:3 pbc="F F F"
Ca      45.40950593       8.55360335      21.49197020
C       46.11036298       7.79948464      18.13505777
O       45.08605633       7.77482212      17.36120515
O       46.11618219       8.56180184      19.16825570
O       47.12387272       7.05270071      17.88252587
C       48.08663702      10.10328862      22.11071142
O       49.00504096      10.86048461      21.62920681
O       47.64187116      10.30883720      23.29755234
O       47.62167620       9.13301162      21.40997447
C       44.92813014       5.09114413      19.97381156
O       45.74392737       4.10772811      20.10039162
O       45.27187908       6.26484908      20.36484610
O       43.77200430       4.90260906      19.44799575
C       42.47601491       9.79577401      20.96263915
O       42.15136490       9.97262773      19.73301089
O       42.24252817      10.71609460      21.82702030
O       43.02279576       8.69366665      21.33013208
C       45.46025779       7.16173665      23.99185701
O       46.34268297       6.91891956      23.09128835
O       44.40617251       7.83158026      23.69374210
O       45.63060306       6.73235328      25.18988505
H       44.64641397       9.66748837      23.82076984
H       45.97973144      10.26742168      23.42803622
O       45.07238382      10.18219600      23.13530875
