19
Properties=species:S:1:pos:R:3 pbc="F F F"
Ca      15.84337788       8.32581370      13.96582345
C       17.65794683      10.20600698      12.88907196
O       16.55784224       9.90479059      12.29941543
O       17.84690664       9.86021710      14.11111121
O       18.57410748      10.84203203      12.25285019
C       12.45013755       9.26392820      12.44788714
O       13.57338687       8.78513668      12.84503527
O       12.39774430       9.97925468      11.38288960
O       11.37745833       9.01759688      13.10920186
C       18.12411871       6.10640112      12.83589686
O       18.40352210       5.05176762      12.15888956
O       17.26408052       6.94788126      12.38767529
O       18.71402135       6.32585660      13.95505331
H       14.55926701      10.20444229      15.78324379
H       15.64595561       9.53756260      16.59950020
O       15.25731529       9.55209766      15.72486963
H       16.96592678       7.54506416      16.48389245
H       17.83110952       6.93764135      15.40019897
O       17.19504030       7.63511179      15.55888956
