24
Properties=species:S:1:pos:R:3 pbc="F F F"
Ca       3.67778116      16.27306554      19.87029943
C        1.42577113      18.16189958      19.37212605
O        2.19437329      17.50596163      18.57988085
O        1.36019958      19.44155878      19.28948703
O        0.71397864      17.53726176      20.23921057
C        5.42866130      19.09970198      19.26032298
O        6.48937218      19.41663300      19.91078625
O        4.70403665      20.01635905      18.72805024
O        5.09515152      17.86581161      19.13809003
C        5.69792322      15.05281021      21.37720465
O        5.22529419      16.18296876      21.76192881
O        6.89718591      14.71815358      21.69092824
O        4.97170496      14.25783234      20.67772966
C        2.21177011      13.45810473      20.60303876
O        2.45580690      13.31386714      21.85535816
O        1.87635074      14.60886273      20.14269785
O        2.30206840      12.45134205      19.81124361
C        5.68040445      14.92076223      16.86604330
O        5.10859498      15.34638024      17.93400415
O        4.98436230      14.69778847      15.81036072
O        6.94764790      14.71429374      16.85496848
H        1.95690605      16.75174581      22.12869914
H        2.34412784      15.31880008      21.83100632
O        2.71592888      16.17472922      22.04403473
