23
Properties=species:S:1:pos:R:3 pbc="F F F"
Ca      32.32823892      35.55682821      31.12234009
C       33.05393295      37.66390231      33.74577008
O       33.13147620      37.83359175      35.01614285
O       33.15683643      38.67109446      32.95606789
O       32.87518040      36.48679207      33.26502732
C       34.41710390      33.22384358      31.82252231
O       34.13128446      33.38850561      33.06342821
O       34.35776909      34.21840479      31.01259564
O       34.76954572      32.06627531      31.39301757
C       31.58607965      32.59222278      32.13526426
O       32.17056744      32.45283210      31.00052955
O       31.35370578      33.76732841      32.59765765
O       31.22267968      31.55663430      32.80172913
C       30.11104328      34.20777875      28.64101482
O       31.22962766      34.60547720      29.13015788
O       29.94744080      34.16047110      27.36835924
O       29.15606139      33.85738796      29.42452734
H       34.04640332      37.26763557      29.94814491
H       32.99949982      37.33587533      28.85670936
O       33.21893743      36.87679976      29.66746696
H       31.34082512      38.03557139      32.05081496
H       30.34463325      37.81762078      30.93188937
O       30.95438468      37.35158960      31.50394701
