19
Properties=species:S:1:pos:R:3 pbc="F F F"
Ca      22.77124022       7.32533090      32.51706059
C       20.32827175       5.82222361      31.75267594
O       19.95444345       5.38730892      32.90148168
O       20.57746680       4.99480768      30.80297198
O       20.45164716       7.08461676      31.55318898
C       21.82390383       7.20785659      35.28843248
O       22.98011726       6.78897945      34.91915408
O       21.06270415       7.81353311      34.45034832
O       21.42848974       7.02018611      36.49552867
C       23.46595102       4.26778056      33.40660072
O       24.66829707       3.81979465      33.45487286
O       23.08819234       4.98681588      32.41214439
O       22.63907704       3.99012218      34.34885485
H       25.09940288       8.95794924      32.97000384
H       25.58327597       7.68000292      33.62184225
O       24.88631864       8.02975138      33.06666747
H       21.70650368       9.60884380      31.50717253
H       23.02116964      10.15536805      32.02181789
O       22.40851517       9.42826655      32.13231541
