27
Properties=species:S:1:pos:R:3 pbc="F F F"
Ca       0.63969586       4.57724323      34.27995518
C       -2.25130192       4.92049425      33.98289360
O       -1.59095649       5.68083549      33.18558674
O       -1.64064376       4.01576823      34.65996783
O       -3.51316157       5.09932376      34.14233097
C        0.60190289       2.73279902      31.86435978
O        0.72731905       1.75839324      31.03764387
O        0.46371624       3.93207495      31.42698502
O        0.61399581       2.50784808      33.12844267
C        3.45757437       4.17493377      32.60168235
O        3.01803605       4.44637368      33.77717366
O        3.70893612       2.95882972      32.27524421
O        3.65582419       5.12069667      31.75617477
C        2.21002910       6.96637904      36.04446059
O        3.18049854       7.67733925      35.59570834
O        1.14626011       7.53599188      36.48331204
O        2.30054610       5.68557916      36.04794808
C        1.58230374       7.62308463      32.61653662
O        2.82314143       7.95107217      32.65399269
O        0.84742902       8.00221273      31.63425468
O        1.07925773       6.90578991      33.55520046
H       -0.85002473       4.89910392      36.26001547
H       -0.29744950       6.20774604      36.78347627
O       -0.52455702       5.75222945      35.97282315
H        0.53182797       2.53588717      36.85855636
H       -0.61679520       2.88455265      35.93606384
O        0.33138301       2.75401987      35.94835202
