24
Properties=species:S:1:pos:R:3 pbc="F F F"
Ca      15.02724802      16.11811380      14.22042522
C       17.20999736      18.34224374      12.52345988
O       18.34150278      18.07394971      13.06785699
O       16.99014623      19.51247374      12.04295841
O       16.30176746      17.43751149      12.45112426
C       11.81583421      15.19451774      14.98746222
O       12.92270671      15.09227599      14.34478505
O       11.75446901      15.91256455      16.05014592
O       10.76727578      14.58880109      14.56051297
C       15.79905807      15.08847621      17.28788402
O       15.32585336      14.99104340      18.47746231
O       15.07468395      15.57653666      16.34682960
O       16.99296684      14.68819377      17.03714092
C       14.27588020      18.75564928      14.03410892
O       14.76044471      18.31259786      15.13754036
O       14.42967796      19.98983049      13.71506291
O       13.63872393      17.96419844      13.24906814
C       14.99449634      14.55767008      11.26939739
O       14.39564924      13.58030333      10.69078497
O       14.31356846      15.44489447      11.90013200
O       16.27385013      14.65084259      11.21257482
H       18.11996514      15.53608686      14.21875976
H       17.32849270      15.36615759      15.49805278
O       17.54365501      16.00719610      14.82055196
