20
Properties=species:S:1:pos:R:3 pbc="F F F"
Ca      31.03055131      12.81022042       5.02197930
C       31.43764193      11.13874943       2.40259878
O       30.50168298      10.32643419       2.73842708
O       32.23712901      11.60111548       3.29461559
O       31.58057102      11.48057787       1.17321664
C       32.42045694      15.07747850       4.79454895
O       33.17718072      14.04503847       4.89499954
O       32.81402130      16.20923644       5.25594378
O       31.27492065      14.98062806       4.22269242
C       30.89352067      13.35027674       7.78781073
O       30.15221696      12.51334818       8.41921964
O       32.15788996      13.38231565       8.00917330
O       30.36982100      14.15814929       6.93825909
C       31.80584805      10.19444941       5.45988118
O       30.55863543      10.46880133       5.59347175
O       32.69187387      10.96442971       5.98021148
O       32.16733479       9.15630448       4.79637708
H       29.40526249      14.34214414       4.11436449
H       29.37071164      13.61228781       2.78846435
O       29.28990191      13.47228390       3.73191565
