24
Properties=species:S:1:pos:R:3 pbc="F F F"
Ca       1.91255344       6.96191967       9.00968923
C        2.48143891       4.05661169       7.71839716
O        1.75269584       3.06437874       7.35359703
O        3.63814457       3.84782733       8.23520948
O        2.04891177       5.25721385       7.57649564
C        0.40732183       4.22636641      10.17625585
O        1.59701534       4.70716250      10.22230454
O        0.09875349       3.36132890       9.27895340
O       -0.47380334       4.61060783      11.02750960
C        5.39434936       7.02637834       8.05776035
O        4.54458424       6.65822288       8.94715141
O        5.52575825       6.34785788       6.97563401
O        6.10345935       8.08034946       8.24474558
C        3.47017876       8.97875775       7.87660998
O        4.29334566       9.91282567       7.56265642
O        3.00130111       8.20361505       6.96668636
O        3.11544952       8.82019321       9.10040643
C        2.37104838       6.76114638      11.89096206
O        1.43956732       7.44520701      11.33144578
O        3.50481169       6.62059371      11.30489024
O        2.17230122       6.22634093      13.04123904
H        0.91752925       8.64950037       7.05689485
H        0.39179855       9.14288017       8.38808935
O        0.41946655       8.36943955       7.82483430
