28
Properties=species:S:1:pos:R:3 pbc="F F F"
Ca      49.44901959      38.06017174       3.92602734
C       46.09179179      39.49107594       3.57132200
O       46.30665947      40.43665813       2.72967943
O       45.12024435      39.58281737       4.40578895
O       46.84847153      38.45375233       3.57849761
C       50.15432820      40.66507505       2.42230718
O       50.18187303      41.83521876       1.89442419
O       51.25066175      40.08300546       2.75079328
O       49.02992671      40.08140652       2.63137116
C       49.11025714      34.80780224       4.02390985
O       49.48826971      33.81043493       4.73876618
O       48.94880059      35.96095247       4.56504842
O       48.88414210      34.64978117       2.76989398
C       51.49166462      36.39100713       1.84229645
O       51.39190142      37.35035973       0.99474345
O       51.41087309      36.63481818       3.10034460
O       51.65974518      35.18621032       1.43135874
C       47.45202304      38.92435549       6.09993150
O       48.30681558      37.99132541       6.31773712
O       47.80761210      39.98743032       5.47376607
O       46.23904832      38.78971435       6.49895391
C       51.82089149      39.36910915       5.88722620
O       52.06566173      38.96104918       7.07979927
O       50.61222033      39.60845441       5.52600077
O       52.78351651      39.52591086       5.05210841
H       48.19244875      37.40609659       1.33392479
H       49.69818563      37.51451366       1.22035818
O       48.99087205      37.43906859       1.86086386
