24
Properties=species:S:1:pos:R:3 pbc="F F F"
Ca      14.89370322       8.95830347      42.88129486
C       16.91271555       9.87294663      44.76526231
O       16.87036087      10.15998902      43.51447517
O       17.65680461      10.55796513      45.55629761
O       16.20176262       8.90860995      45.22705929
C       15.78776108       6.31890935      42.72026337
O       16.75890507       7.07828470      42.36126287
O       15.41055431       6.29593444      43.94739015
O       15.20070328       5.57470517      41.85413618
C       12.50035543       7.39699494      44.24134035
O       13.35605076       8.26597822      44.64297527
O       11.35039716       7.77762451      43.81545990
O       12.78994781       6.14659686      44.27736932
C       13.06836633      11.56196001      42.06896127
O       12.64560680      11.76498836      40.87367477
O       13.51458403      12.54266116      42.76736711
O       13.04583523      10.37806296      42.56548524
C       14.99717630       9.56637036      39.88449160
O       14.01022357       9.47178538      39.06862560
O       15.65706441      10.66456094      39.96925078
O       15.31633036       8.56687018      40.62462602
H       12.86415926       7.95565825      41.27292193
H       13.90711476       6.89194322      41.00338659
O       13.42953498       7.32110799      41.71329355
