24
Properties=species:S:1:pos:R:3 pbc="F F F"
Ca       9.82674405      47.89633521      38.11666791
C       10.06427312      44.37730282      38.21884715
O        8.90739546      43.82027987      38.21473789
O       10.22000963      45.52972154      38.76321367
O       11.06548207      43.78176438      37.67887248
C        7.66478720      47.50695853      40.20095601
O        8.66151284      48.31228894      40.28242105
O        6.52278333      47.84852520      40.67825557
O        7.81282472      46.35570532      39.65199647
C       12.86428490      47.67893129      37.18932579
O       14.03185310      47.20018241      37.42647317
O       12.63880223      48.30762011      36.09271164
O       11.91952643      47.52014157      38.04423632
C        8.78812173      46.79626346      35.10009852
O        7.75104048      46.38822952      35.73777020
O        9.01870938      46.37142776      33.91056139
O        9.59657464      47.62630699      35.65334915
C        8.12608841      49.73592507      36.91168896
O        9.34850537      50.11958703      36.99625124
O        7.26368408      50.46880186      36.30522298
O        7.76635543      48.61875320      37.43242881
H       11.06796043      49.58596384      40.15288438
H       11.91788814      49.27717908      38.93873035
O       11.05261594      49.59564880      39.19585705
