24
Properties=species:S:1:pos:R:3 pbc="F F F"
Ca      48.36002140       1.07233214      39.76872410
C       47.07976000      -1.36388140      41.52977490
O       47.79657595      -2.34981963      41.12634562
O       47.63227953      -0.23690374      41.80051116
O       45.80878446      -1.50107133      41.65000345
C       51.25118335       2.38821866      38.08334314
O       50.22195344       1.79758804      38.57375636
O       52.42170949       1.89096713      38.26018469
O       51.10917906       3.47222136      37.40996654
C       49.05707039      -1.44559480      39.03665455
O       49.75514272      -0.73693510      39.84850103
O       49.41141695      -2.65013669      38.76811145
O       47.99699647      -0.95442064      38.50412394
C       46.42148666       3.74821346      40.85563946
O       46.39740122       4.53196158      39.83887238
O       46.56696812       2.48353593      40.68806180
O       46.31180849       4.23037154      42.04060820
C       49.24666818       2.72007543      41.71034653
O       49.14820067       3.73066515      40.92443292
O       49.99367058       1.72666168      41.38821902
O       48.59860131       2.70316066      42.81866492
H       45.83794688       1.08995592      38.49477678
H       46.83847535       0.45985308      37.54936240
O       46.62748614       1.28334043      37.98934491
