24
Properties=species:S:1:pos:R:3 pbc="F F F"
Ca      19.73252706      24.87468111      21.42078789
C       21.05384534      27.32038706      22.94899019
O       20.03837114      26.58872926      23.23560154
O       20.88622215      28.54876859      22.61486649
O       22.23590693      26.82024575      22.98429617
C       21.77639610      25.54895129      19.32027783
O       22.40170157      26.05916559      18.32161849
O       21.44491966      26.28866259      20.31606761
O       21.47752922      24.30022193      19.32059326
C       17.22098504      25.24937229      23.48807560
O       17.71617116      25.70282714      22.39362309
O       16.01283095      25.53724244      23.81388409
O       17.93758979      24.51730167      24.26216023
C       21.68340966      22.81977620      23.13116909
O       22.50677474      22.75798973      24.11447568
O       20.95585945      23.86506488      22.96777313
O       21.57774348      21.83072690      22.31922034
C       17.96793615      23.12195587      20.14340505
O       16.88270076      22.79536900      19.53987144
O       18.08485494      22.92316902      21.40652006
O       18.94097694      23.63560052      19.48158301
H       18.00717500      26.53070080      19.88328063
H       19.50138170      26.70975296      19.71841154
O       18.81654161      26.63683737      20.38317366
