24
Properties=species:S:1:pos:R:3 pbc="F F F"
Ca       6.96828725      45.22426699      37.74887878
C        6.66741071      42.50455872      37.70115826
O        6.19634177      43.23243176      38.64823416
O        7.05276456      41.30425701      37.94495323
O        6.74168273      42.97278214      36.50788199
C       10.06427312      44.37730282      38.21884715
O        8.90739546      43.82027987      38.21473789
O       10.22000963      45.52972154      38.76321367
O       11.06548207      43.78176438      37.67887248
C        3.73369163      45.16396792      37.33042247
O        4.86556052      45.24132704      36.72913746
O        3.49547846      45.90889540      38.34875093
O        2.84440352      44.33345146      36.92046596
C        7.66478720      47.50695853      40.20095601
O        8.66151284      48.31228894      40.28242105
O        6.52278333      47.84852520      40.67825557
O        7.81282472      46.35570532      39.65199647
C        8.78812173      46.79626346      35.10009852
O        7.75104048      46.38822952      35.73777020
O        9.01870938      46.37142776      33.91056139
O        9.59657464      47.62630699      35.65334915
H        6.16736953      47.61015762      38.81451597
H        4.93865068      46.99866255      38.17559593
O        5.86659406      47.17277433      38.01798661
