26
Properties=species:S:1:pos:R:3 pbc="F F F"
Ca       4.54979382       5.09293713      29.45882512
C        5.92793547       2.55012970      28.40895744
O        4.78389647       3.13197999      28.44473792
O        6.82169267       2.83687106      29.28510396
O        6.18240399       1.69028798      27.48995081
C        3.45757437       4.17493377      32.60168235
O        3.01803605       4.44637368      33.77717366
O        3.70893612       2.95882972      32.27524421
O        3.65582419       5.12069667      31.75617477
C        1.30713515       5.95581880      28.89489471
O        0.19224574       6.28105209      29.44252390
O        1.32573418       5.10710842      27.93156820
O        2.40442906       6.47192566      29.31707087
C        5.58663136       7.90129946      30.72021218
O        4.93471375       7.59054652      29.65856639
O        6.18773546       9.03335947      30.79616904
O        5.64797009       7.07478647      31.70091065
H        3.10286337       2.96563905      30.30250718
H        2.25718647       4.14173398      30.74242358
O        2.66033839       3.74635895      29.96952070
H        6.97362822       4.70425003      31.03614694
H        5.71923154       5.08340120      31.79418951
O        6.05482193       4.46083949      31.14918728
H        5.06843143       6.35133322      27.10265965
H        4.17400474       7.18834840      27.99221103
O        4.27036056       6.30784098      27.62936946
