20
Properties=species:S:1:pos:R:3 pbc="F F F"
Ca      49.37787111      17.09782514      32.10768142
C       49.87986376      20.01090451      30.66099766
O       49.42689350      18.82099448      30.49491038
O       49.42189368      20.97719965      29.95023038
O       50.78333923      20.23632361      31.54506298
C       52.07441324      16.42082940      32.66839921
O       53.28637713      16.25559713      33.05890847
O       51.69302915      17.56382564      32.22482134
O       51.24694320      15.43992802      32.71060658
C       47.61550118      19.79627754      32.98431401
O       48.63431214      19.09524655      33.32961541
O       46.75625751      20.15824616      33.86711210
O       47.45588377      20.13525935      31.75619875
C       48.52903250      15.79557765      29.64682372
O       49.70632248      15.66028785      30.14113114
O       47.68470308      16.58482449      30.20615581
O       48.19333313      15.13529169      28.59802270
H       48.96573610      16.68469314      34.74495255
H       48.24941017      15.49686506      34.13845710
O       49.01953732      16.05422666      34.02672595
