26
Properties=species:S:1:pos:R:3 pbc="F F F"
Ca       3.50466397      24.42025592      30.53539730
C        4.97591074      24.31949451      33.00328058
O        4.56170042      25.45229456      32.56300118
O        4.52347688      23.22964883      32.49712624
O        5.84423122      24.27655689      33.94817644
C        4.54233740      23.41772638      27.76452210
O        4.45041486      24.61000571      28.23214778
O        3.54068479      22.88492199      27.16330244
O        5.63433337      22.75650060      27.90228599
C        4.23865274      27.35584641      29.10929180
O        4.89674806      26.67486018      29.97636966
O        4.78252899      28.37251304      28.54427556
O        3.03572652      27.02179418      28.80923638
C        1.69239549      22.07445838      30.72358910
O        1.68785902      23.06150581      31.54479114
O        0.59659676      21.46584342      30.44525660
O        2.79273068      21.69602590      30.18071957
H        1.05625105      24.88704915      29.39842971
H        1.62879911      23.60670095      28.82852412
O        1.88257443      24.42643876      29.25262294
H        6.31436467      24.30335840      31.04287201
H        6.16175728      23.29480607      29.92419942
O        5.82370177      24.13324592      30.23879274
H        1.67387967      26.91429421      30.68922633
H        1.40811286      26.24566250      32.02121538
O        2.08864197      26.37184554      31.36001209
