23
Properties=species:S:1:pos:R:3 pbc="F F F"
Ca      24.04034616      36.04921392      35.07175292
C       22.95755351      37.63028493      37.80211177
O       23.40424150      38.10552087      38.90812982
O       23.76454109      37.39749023      36.83090993
O       21.70395800      37.38732380      37.66748665
C       23.00034426      34.62308911      32.73628332
O       22.84629292      33.86648569      31.71038217
O       23.10387893      35.89415168      32.58683693
O       23.05578997      34.10818551      33.91121044
C       22.92915813      38.43249040      34.43163481
O       24.07248503      38.30509953      33.86134349
O       22.59035148      39.55905420      34.94614525
O       22.12982768      37.42986517      34.49849698
C       26.67227716      34.60690283      33.39461183
O       26.29052107      33.89506085      32.39651399
O       26.02318602      35.66840199      33.71171784
O       27.70312438      34.25724565      34.07560364
H       22.59692684      34.83667548      36.99455371
H       21.78849469      36.00018195      36.46108830
O       22.15115191      35.15124631      36.20806677
H       25.34608134      35.34863152      37.25165300
H       25.51870081      33.95310418      36.69075987
O       25.11067849      34.79869251      36.50440143
