24
Properties=species:S:1:pos:R:3 pbc="F F F"
Ca      30.56110255      44.99378717      26.59745966
C       31.60744459      44.00734405      23.89065120
O       32.06047726      42.94595994      24.45357036
O       31.07349903      43.93787557      22.72500596
O       31.68940200      45.13838221      24.49288742
C       29.05580393      47.75389104      26.20593263
O       30.18922103      47.27679853      25.83660146
O       28.96071553      48.98606225      26.55431376
O       28.02007016      46.99571023      26.23871211
C       30.10510432      43.73847109      29.30239302
O       29.44243885      43.78449577      28.20356985
O       29.65959366      44.33866341      30.34639723
O       31.21329835      43.09228409      29.35720220
C       28.37133460      43.81143604      24.25363395
O       27.46543946      42.91658027      24.08857912
O       29.11301781      43.78848342      25.30150558
O       28.52766608      44.73610400      23.37659037
C       30.73373029      47.09965661      28.69145516
O       31.74961179      46.37615067      28.38620085
O       30.90312480      48.30753589      29.09269012
O       29.54922090      46.61126774      28.60737075
H       32.12241993      43.01930565      27.72123444
H       32.09590014      42.95970809      26.20873982
O       32.36180397      43.51751470      26.93975185
